                                   MODFLOW 6
                U.S. GEOLOGICAL SURVEY MODULAR HYDROLOGIC MODEL
                          GROUNDWATER FLOW MODEL (GWF)
                            VERSION 6.0.5 03/31/2019
                               ***DEVELOP MODE***

   MODFLOW 6 compiled Nov 27 2019 14:52:26 with IFORT compiler (ver. 18.0.5)

This software is preliminary or provisional and is subject to 
revision. It is being provided to meet the need for timely best 
science. The software has not received final approval by the U.S. 
Geological Survey (USGS). No warranty, expressed or implied, is made 
by the USGS or the U.S. Government as to the functionality of the 
software and related material nor shall the fact of release 
constitute any such warranty. The software is provided on the 
condition that neither the USGS nor the U.S. Government shall be held 
liable for any damages resulting from the authorized or unauthorized 
use of the software.


MODFLOW was compiled using uniform precision.
Precision of REAL variables: 15


 OPENED .\testje\testje.dis
 FILE TYPE:DIS6                   UNIT 1005   STATUS:OLD                 
 FORMAT:FORMATTED              ACCESS:SEQUENTIAL          
 ACTION:READ                


 OPENED .\testje\testje.ic
 FILE TYPE:IC6                    UNIT 1006   STATUS:OLD                 
 FORMAT:FORMATTED              ACCESS:SEQUENTIAL          
 ACTION:READ                


 OPENED .\testje\testje.npf
 FILE TYPE:NPF6                   UNIT 1007   STATUS:OLD                 
 FORMAT:FORMATTED              ACCESS:SEQUENTIAL          
 ACTION:READ                


 OPENED .\testje\testje.oc
 FILE TYPE:OC6                    UNIT 1008   STATUS:OLD                 
 FORMAT:FORMATTED              ACCESS:SEQUENTIAL          
 ACTION:READ                


 OPENED .\testje\testje.chd
 FILE TYPE:CHD6                   UNIT 1009   STATUS:OLD                 
 FORMAT:FORMATTED              ACCESS:SEQUENTIAL          
 ACTION:READ                


 OPENED .\testje\testje.wel
 FILE TYPE:WEL6                   UNIT 1010   STATUS:OLD                 
 FORMAT:FORMATTED              ACCESS:SEQUENTIAL          
 ACTION:READ                


 DIS -- STRUCTURED GRID DISCRETIZATION PACKAGE, VERSION 2 : 3/27/2014 - INPUT READ FROM UNIT 1005


 # discretization
 PROCESSING DISCRETIZATION OPTIONS
    MODEL LENGTH UNIT IS METERS
 END OF DISCRETIZATION OPTIONS
 # The DIMENSIONS block is required
 PROCESSING DISCRETIZATION DIMENSIONS
    NLAY =       1
    NROW =      10
    NCOL =      10
 END OF DISCRETIZATION DIMENSIONS
 # The GRIDDATA block is required
 PROCESSING GRIDDATA

                     DELR =   1.000000    

                     DELC =   1.000000    

 TOP ELEVATION OF LAYER 1 =   0.000000    

   MODEL LAYER BOTTOM EL. =  -2.000000    
 END PROCESSING GRIDDATA

 NPF -- NODE PROPERTY FLOW PACKAGE, VERSION 1, 3/30/2015 INPUT READ FROM UNIT 1007


 PROCESSING NPF OPTIONS
 END OF NPF OPTIONS

 WEL   -- WEL PACKAGE, VERSION 8, 2/22/2014 INPUT READ FROM UNIT 1010

 PROCESSING WEL OPTIONS
 END OF WEL OPTIONS

 PROCESSING WEL DIMENSIONS
    MAXBOUND =       1
 END OF WEL DIMENSIONS

 CHD   -- CHD PACKAGE, VERSION 8, 2/22/2014 INPUT READ FROM UNIT 1009

 PROCESSING CHD OPTIONS
 END OF CHD OPTIONS
 # The DIMENSIONS block is required

 PROCESSING CHD DIMENSIONS
    MAXBOUND =      20
 END OF CHD DIMENSIONS

 IC -- INITIAL CONDITIONS PACKAGE, VERSION 8, 3/28/2015 INPUT READ FROM UNIT 1006
 PROCESSING IC OPTIONS
 END OF IC OPTIONS
 PROCESSING GRIDDATA

     INITIAL HEAD =   0.000000    
 END PROCESSING GRIDDATA
 PROCESSING GRIDDATA

                ICELLTYPE = 0

                        K =   1.000000    

                      K33 =   1.000000    
 K22 not provided.  Assuming K22 = K.
 END PROCESSING GRIDDATA
    BINARY GRID INFORMATION WILL BE WRITTEN TO:
      UNIT NUMBER: 1012
      FILE NAME: d:\Data\Models\mf6\small_models\ex_10x10_timedep\testje\testje.dis.grb

 OPENED d:\Data\Models\mf6\small_models\ex_10x10_timedep\testje\testje.dis.grb
 FILE TYPE:DATA(BINARY)   UNIT 1012   STATUS:REPLACE             
 FORMAT:UNFORMATTED            ACCESS:STREAM              
 ACTION:READWRITE           

      THE LAST TIME STEP WILL BE PRINTED
      THE LAST TIME STEP WILL BE PRINTED
 PROCESSING OC OPTIONS
    HEAD INFORMATION WILL BE WRITTEN TO:
      UNIT NUMBER: 1013
      FILE NAME: .\testje\heads\testje.hds

 OPENED .\testje\heads\testje.hds
 FILE TYPE:DATA(BINARY)   UNIT 1013   STATUS:REPLACE             
 FORMAT:UNFORMATTED            ACCESS:STREAM              
 ACTION:READWRITE           

 END OF OC OPTIONS

 BEGIN READING OUTPUT CONTROL FOR STRESS PERIOD 1
      ALL TIME STEPS WILL BE SAVED
      ALL TIME STEPS WILL BE PRINTED

 END READING OUTPUT CONTROL FOR STRESS PERIOD 1

 REUSING WELS FROM LAST STRESS PERIOD
 #The following block of constant-head cells will be activated
 #for stress period 1. This block will remain active throughout
 #the simulation.
 # l r c head
 # left

 INNER ITERATION SUMMARY
 --------------------------------------------------------------------------------------------------------------------------------
     TOTAL      OUTER     INNER                    MAXIMUM CHANGE        MAXIMUM                  MAXIMUM RESIDUAL        MAXIMUM
 ITERATION  ITERATION ITERATION                    MODEL-(CELLID)         CHANGE                    MODEL-(CELLID)       RESIDUAL
 --------------------------------------------------------------------------------------------------------------------------------
          1         1         1                    1_GWF-(1,10,9)   1.514521                         1_GWF-(1,2,8)  -1.278042    
          2         1         2                    1_GWF-(1,10,8)   1.103463                         1_GWF-(1,2,8)   1.181624    
          3         1         3                     1_GWF-(1,7,6)  0.7727229                        1_GWF-(1,10,7)  0.4090642    
          4         1         4                     1_GWF-(1,5,5)  0.1301381                         1_GWF-(1,2,7)  0.1010685    
          5         1         5                     1_GWF-(1,7,3)  0.4596230E-01                     1_GWF-(1,2,7) -0.3325475E-01
          6         1         6                     1_GWF-(1,1,4)  0.9769371E-02                     1_GWF-(1,3,6) -0.1041865E-01
          7         1         7                     1_GWF-(1,9,4) -0.6679768E-02                    1_GWF-(1,10,6)  0.5062313E-02
          8         1         8                    1_GWF-(1,10,6) -0.1979433E-02                     1_GWF-(1,1,8) -0.9730432E-03
          9         1         9                     1_GWF-(1,1,8)  0.4861237E-03                     1_GWF-(1,9,9)  0.3531264E-03
         10         1        10                     1_GWF-(1,2,7)  0.7021772E-04                     1_GWF-(1,9,9) -0.4677235E-04
         11         1        11                     1_GWF-(1,1,5) -0.9766284E-05                     1_GWF-(1,9,6)  0.8047279E-05
         12         1        12                     1_GWF-(1,5,5)  0.2643399E-05                     1_GWF-(1,9,5)  0.2411981E-05
         13         1        13                     1_GWF-(1,9,5) -0.5936246E-06                     1_GWF-(1,8,8) -0.4157412E-06
         14         1        14                    1_GWF-(1,10,8) -0.1094934E-06                     1_GWF-(1,8,7) -0.5030614E-07
         15         1        15                    1_GWF-(1,10,9) -0.9324466E-08                     1_GWF-(1,4,5)  0.8169092E-08
         16         2         1                     1_GWF-(1,4,5) -0.5306586E-09                     1_GWF-(1,4,5)  0.5515633E-08

1
  HEAD IN LAYER   1 AT END OF TIME STEP   1 IN STRESS PERIOD    1
  ---------------------------------------------------------------------------

            1           2           3           4           5           6           7           8           9          10
 ........................................................................................................................
   1    1.000       1.111       1.222       1.333       1.444       1.556       1.667       1.778       1.889       2.000    
   2    1.000       1.111       1.222       1.333       1.444       1.556       1.667       1.778       1.889       2.000    
   3    1.000       1.111       1.222       1.333       1.444       1.556       1.667       1.778       1.889       2.000    
   4    1.000       1.111       1.222       1.333       1.444       1.556       1.667       1.778       1.889       2.000    
   5    1.000       1.111       1.222       1.333       1.444       1.556       1.667       1.778       1.889       2.000    
   6    1.000       1.111       1.222       1.333       1.444       1.556       1.667       1.778       1.889       2.000    
   7    1.000       1.111       1.222       1.333       1.444       1.556       1.667       1.778       1.889       2.000    
   8    1.000       1.111       1.222       1.333       1.444       1.556       1.667       1.778       1.889       2.000    
   9    1.000       1.111       1.222       1.333       1.444       1.556       1.667       1.778       1.889       2.000    
  10    1.000       1.111       1.222       1.333       1.444       1.556       1.667       1.778       1.889       2.000    

 HEAD WILL BE SAVED ON UNIT 1013 AT END OF TIME STEP    1, STRESS PERIOD    1



         TIME SUMMARY AT END OF TIME STEP    1 IN STRESS PERIOD    1
                    SECONDS     MINUTES      HOURS       DAYS        YEARS
                    -----------------------------------------------------------
   TIME STEP LENGTH 1.72800E+06  28800.      480.00      20.000     5.47570E-02
 STRESS PERIOD TIME 1.72800E+06  28800.      480.00      20.000     5.47570E-02
         TOTAL TIME 1.72800E+06  28800.      480.00      20.000     5.47570E-02

 INNER ITERATION SUMMARY
 --------------------------------------------------------------------------------------------------------------------------------
     TOTAL      OUTER     INNER                    MAXIMUM CHANGE        MAXIMUM                  MAXIMUM RESIDUAL        MAXIMUM
 ITERATION  ITERATION ITERATION                    MODEL-(CELLID)         CHANGE                    MODEL-(CELLID)       RESIDUAL
 --------------------------------------------------------------------------------------------------------------------------------
          1         1         1                     1_GWF-(1,1,4)  0.2229011E-09                     1_GWF-(1,4,5)  0.4458081E-08

1
  HEAD IN LAYER   1 AT END OF TIME STEP   2 IN STRESS PERIOD    1
  ---------------------------------------------------------------------------

            1           2           3           4           5           6           7           8           9          10
 ........................................................................................................................
   1    1.000       1.111       1.222       1.333       1.444       1.556       1.667       1.778       1.889       2.000    
   2    1.000       1.111       1.222       1.333       1.444       1.556       1.667       1.778       1.889       2.000    
   3    1.000       1.111       1.222       1.333       1.444       1.556       1.667       1.778       1.889       2.000    
   4    1.000       1.111       1.222       1.333       1.444       1.556       1.667       1.778       1.889       2.000    
   5    1.000       1.111       1.222       1.333       1.444       1.556       1.667       1.778       1.889       2.000    
   6    1.000       1.111       1.222       1.333       1.444       1.556       1.667       1.778       1.889       2.000    
   7    1.000       1.111       1.222       1.333       1.444       1.556       1.667       1.778       1.889       2.000    
   8    1.000       1.111       1.222       1.333       1.444       1.556       1.667       1.778       1.889       2.000    
   9    1.000       1.111       1.222       1.333       1.444       1.556       1.667       1.778       1.889       2.000    
  10    1.000       1.111       1.222       1.333       1.444       1.556       1.667       1.778       1.889       2.000    

 HEAD WILL BE SAVED ON UNIT 1013 AT END OF TIME STEP    2, STRESS PERIOD    1



         TIME SUMMARY AT END OF TIME STEP    2 IN STRESS PERIOD    1
                    SECONDS     MINUTES      HOURS       DAYS        YEARS
                    -----------------------------------------------------------
   TIME STEP LENGTH 1.72800E+06  28800.      480.00      20.000     5.47570E-02
 STRESS PERIOD TIME 3.45600E+06  57600.      960.00      40.000     0.10951    
         TOTAL TIME 3.45600E+06  57600.      960.00      40.000     0.10951    

 INNER ITERATION SUMMARY
 --------------------------------------------------------------------------------------------------------------------------------
     TOTAL      OUTER     INNER                    MAXIMUM CHANGE        MAXIMUM                  MAXIMUM RESIDUAL        MAXIMUM
 ITERATION  ITERATION ITERATION                    MODEL-(CELLID)         CHANGE                    MODEL-(CELLID)       RESIDUAL
 --------------------------------------------------------------------------------------------------------------------------------
          1         1         1                     1_GWF-(1,1,3)  0.1392635E-09                     1_GWF-(1,4,5)  0.3834973E-08

1
  HEAD IN LAYER   1 AT END OF TIME STEP   3 IN STRESS PERIOD    1
  ---------------------------------------------------------------------------

            1           2           3           4           5           6           7           8           9          10
 ........................................................................................................................
   1    1.000       1.111       1.222       1.333       1.444       1.556       1.667       1.778       1.889       2.000    
   2    1.000       1.111       1.222       1.333       1.444       1.556       1.667       1.778       1.889       2.000    
   3    1.000       1.111       1.222       1.333       1.444       1.556       1.667       1.778       1.889       2.000    
   4    1.000       1.111       1.222       1.333       1.444       1.556       1.667       1.778       1.889       2.000    
   5    1.000       1.111       1.222       1.333       1.444       1.556       1.667       1.778       1.889       2.000    
   6    1.000       1.111       1.222       1.333       1.444       1.556       1.667       1.778       1.889       2.000    
   7    1.000       1.111       1.222       1.333       1.444       1.556       1.667       1.778       1.889       2.000    
   8    1.000       1.111       1.222       1.333       1.444       1.556       1.667       1.778       1.889       2.000    
   9    1.000       1.111       1.222       1.333       1.444       1.556       1.667       1.778       1.889       2.000    
  10    1.000       1.111       1.222       1.333       1.444       1.556       1.667       1.778       1.889       2.000    

 HEAD WILL BE SAVED ON UNIT 1013 AT END OF TIME STEP    3, STRESS PERIOD    1



         TIME SUMMARY AT END OF TIME STEP    3 IN STRESS PERIOD    1
                    SECONDS     MINUTES      HOURS       DAYS        YEARS
                    -----------------------------------------------------------
   TIME STEP LENGTH 1.72800E+06  28800.      480.00      20.000     5.47570E-02
 STRESS PERIOD TIME 5.18400E+06  86400.      1440.0      60.000     0.16427    
         TOTAL TIME 5.18400E+06  86400.      1440.0      60.000     0.16427    

 INNER ITERATION SUMMARY
 --------------------------------------------------------------------------------------------------------------------------------
     TOTAL      OUTER     INNER                    MAXIMUM CHANGE        MAXIMUM                  MAXIMUM RESIDUAL        MAXIMUM
 ITERATION  ITERATION ITERATION                    MODEL-(CELLID)         CHANGE                    MODEL-(CELLID)       RESIDUAL
 --------------------------------------------------------------------------------------------------------------------------------
          1         1         1                     1_GWF-(1,1,3)  0.9906323E-10                     1_GWF-(1,4,5)  0.3410293E-08

1
  HEAD IN LAYER   1 AT END OF TIME STEP   4 IN STRESS PERIOD    1
  ---------------------------------------------------------------------------

            1           2           3           4           5           6           7           8           9          10
 ........................................................................................................................
   1    1.000       1.111       1.222       1.333       1.444       1.556       1.667       1.778       1.889       2.000    
   2    1.000       1.111       1.222       1.333       1.444       1.556       1.667       1.778       1.889       2.000    
   3    1.000       1.111       1.222       1.333       1.444       1.556       1.667       1.778       1.889       2.000    
   4    1.000       1.111       1.222       1.333       1.444       1.556       1.667       1.778       1.889       2.000    
   5    1.000       1.111       1.222       1.333       1.444       1.556       1.667       1.778       1.889       2.000    
   6    1.000       1.111       1.222       1.333       1.444       1.556       1.667       1.778       1.889       2.000    
   7    1.000       1.111       1.222       1.333       1.444       1.556       1.667       1.778       1.889       2.000    
   8    1.000       1.111       1.222       1.333       1.444       1.556       1.667       1.778       1.889       2.000    
   9    1.000       1.111       1.222       1.333       1.444       1.556       1.667       1.778       1.889       2.000    
  10    1.000       1.111       1.222       1.333       1.444       1.556       1.667       1.778       1.889       2.000    

 HEAD WILL BE SAVED ON UNIT 1013 AT END OF TIME STEP    4, STRESS PERIOD    1



         TIME SUMMARY AT END OF TIME STEP    4 IN STRESS PERIOD    1
                    SECONDS     MINUTES      HOURS       DAYS        YEARS
                    -----------------------------------------------------------
   TIME STEP LENGTH 1.72800E+06  28800.      480.00      20.000     5.47570E-02
 STRESS PERIOD TIME 6.91200E+06 1.15200E+05  1920.0      80.000     0.21903    
         TOTAL TIME 6.91200E+06 1.15200E+05  1920.0      80.000     0.21903    

 INNER ITERATION SUMMARY
 --------------------------------------------------------------------------------------------------------------------------------
     TOTAL      OUTER     INNER                    MAXIMUM CHANGE        MAXIMUM                  MAXIMUM RESIDUAL        MAXIMUM
 ITERATION  ITERATION ITERATION                    MODEL-(CELLID)         CHANGE                    MODEL-(CELLID)       RESIDUAL
 --------------------------------------------------------------------------------------------------------------------------------
          1         1         1                     1_GWF-(1,1,3)  0.7553359E-10                     1_GWF-(1,4,5)  0.3096648E-08

1
  HEAD IN LAYER   1 AT END OF TIME STEP   5 IN STRESS PERIOD    1
  ---------------------------------------------------------------------------

            1           2           3           4           5           6           7           8           9          10
 ........................................................................................................................
   1    1.000       1.111       1.222       1.333       1.444       1.556       1.667       1.778       1.889       2.000    
   2    1.000       1.111       1.222       1.333       1.444       1.556       1.667       1.778       1.889       2.000    
   3    1.000       1.111       1.222       1.333       1.444       1.556       1.667       1.778       1.889       2.000    
   4    1.000       1.111       1.222       1.333       1.444       1.556       1.667       1.778       1.889       2.000    
   5    1.000       1.111       1.222       1.333       1.444       1.556       1.667       1.778       1.889       2.000    
   6    1.000       1.111       1.222       1.333       1.444       1.556       1.667       1.778       1.889       2.000    
   7    1.000       1.111       1.222       1.333       1.444       1.556       1.667       1.778       1.889       2.000    
   8    1.000       1.111       1.222       1.333       1.444       1.556       1.667       1.778       1.889       2.000    
   9    1.000       1.111       1.222       1.333       1.444       1.556       1.667       1.778       1.889       2.000    
  10    1.000       1.111       1.222       1.333       1.444       1.556       1.667       1.778       1.889       2.000    

 HEAD WILL BE SAVED ON UNIT 1013 AT END OF TIME STEP    5, STRESS PERIOD    1


  VOLUME BUDGET FOR ENTIRE MODEL AT END OF TIME STEP    5, STRESS PERIOD   1
  ---------------------------------------------------------------------------------------------------

     CUMULATIVE VOLUME      L**3       RATES FOR THIS TIME STEP      L**3/T          PACKAGE NAME    
     ------------------                 ------------------------                     ----------------

           IN:                                      IN:
           ---                                      ---
                 WEL =           0.0000                   WEL =           0.0000     WEL-1           
                 CHD =         222.2222                   CHD =           2.2222     CHD-1           

            TOTAL IN =         222.2222              TOTAL IN =           2.2222

          OUT:                                     OUT:
          ----                                     ----
                 WEL =           0.0000                   WEL =           0.0000     WEL-1           
                 CHD =         222.2222                   CHD =           2.2222     CHD-1           

           TOTAL OUT =         222.2222             TOTAL OUT =           2.2222

            IN - OUT =       1.0080E-07              IN - OUT =       7.8118E-10

 PERCENT DISCREPANCY =           0.00     PERCENT DISCREPANCY =           0.00




         TIME SUMMARY AT END OF TIME STEP    5 IN STRESS PERIOD    1
                    SECONDS     MINUTES      HOURS       DAYS        YEARS
                    -----------------------------------------------------------
   TIME STEP LENGTH 1.72800E+06  28800.      480.00      20.000     5.47570E-02
 STRESS PERIOD TIME 8.64000E+06 1.44000E+05  2400.0      100.00     0.27379    
         TOTAL TIME 8.64000E+06 1.44000E+05  2400.0      100.00     0.27379    

 END OF FILE DETECTED IN OUTPUT CONTROL.
 CURRENT OUTPUT CONTROL SETTINGS WILL BE 
 REPEATED UNTIL THE END OF THE SIMULATION.

 OUTPUT CONTROL FOR STRESS PERIOD 2 IS REPEATED USING SETTINGS FROM A PREVIOUS STRESS PERIOD.

 REUSING CHDS FROM LAST STRESS PERIOD

 INNER ITERATION SUMMARY
 --------------------------------------------------------------------------------------------------------------------------------
     TOTAL      OUTER     INNER                    MAXIMUM CHANGE        MAXIMUM                  MAXIMUM RESIDUAL        MAXIMUM
 ITERATION  ITERATION ITERATION                    MODEL-(CELLID)         CHANGE                    MODEL-(CELLID)       RESIDUAL
 --------------------------------------------------------------------------------------------------------------------------------
          1         1         1                     1_GWF-(1,5,5)  -2.063053                         1_GWF-(1,4,6)   1.221906    
          2         1         2                     1_GWF-(1,4,6) -0.8405423                         1_GWF-(1,6,4)  -1.063031    
          3         1         3                     1_GWF-(1,3,7) -0.3814530                         1_GWF-(1,7,3) -0.3728537    
          4         1         4                     1_GWF-(1,1,8) -0.1435676                         1_GWF-(1,3,7)  0.9368476E-01
          5         1         5                    1_GWF-(1,10,6) -0.2788843E-01                     1_GWF-(1,2,7) -0.2364424E-01
          6         1         6                    1_GWF-(1,10,7) -0.8344894E-02                     1_GWF-(1,3,7) -0.7285559E-02
          7         1         7                     1_GWF-(1,2,5)  0.3428671E-02                     1_GWF-(1,7,3)  0.3370645E-02
          8         1         8                    1_GWF-(1,10,3) -0.1211894E-02                     1_GWF-(1,8,2)  0.1155304E-02
          9         1         9                     1_GWF-(1,9,4) -0.2666931E-03                     1_GWF-(1,2,8) -0.1809010E-03
         10         1        10                     1_GWF-(1,6,8)  0.4067006E-04                     1_GWF-(1,2,8)  0.3405755E-04
         11         1        11                     1_GWF-(1,6,7)  0.7662557E-05                     1_GWF-(1,8,2)  0.9608657E-05
         12         1        12                     1_GWF-(1,5,7)  0.1975301E-05                     1_GWF-(1,3,7) -0.2400634E-05
         13         1        13                     1_GWF-(1,1,4) -0.5452866E-06                     1_GWF-(1,6,6)  0.3821621E-06
         14         1        14                     1_GWF-(1,2,3) -0.9767181E-07                     1_GWF-(1,4,7) -0.6138971E-07
         15         1        15                     1_GWF-(1,4,7)  0.6528793E-08                     1_GWF-(1,4,6)  0.6381679E-08
         16         2         1                     1_GWF-(1,4,6) -0.1367444E-09                     1_GWF-(1,4,6)  0.5147605E-08

1
  HEAD IN LAYER   1 AT END OF TIME STEP   1 IN STRESS PERIOD    2
  ---------------------------------------------------------------------------

            1           2           3           4           5           6           7           8           9          10
 ........................................................................................................................
   1    1.000      0.8731      0.7701      0.7191      0.7509      0.8849       1.103       1.377       1.682       2.000    
   2    1.000      0.8491      0.7181      0.6363      0.6488      0.8007       1.048       1.346       1.668       2.000    
   3    1.000      0.8052      0.6170      0.4592      0.4071      0.6215      0.9411       1.290       1.645       2.000    
   4    1.000      0.7547      0.4855      0.1763     -0.1008      0.3369      0.8051       1.229       1.622       2.000    
   5    1.000      0.7280      0.3941     -0.1388      -1.324      2.1778E-02  0.7131       1.200       1.613       2.000    
   6    1.000      0.7633      0.5017      0.1980     -7.6458E-02  0.3608      0.8256       1.244       1.630       2.000    
   7    1.000      0.8235      0.6515      0.5054      0.4590      0.6721      0.9844       1.322       1.661       2.000    
   8    1.000      0.8793      0.7752      0.7131      0.7350      0.8844       1.118       1.396       1.694       2.000    
   9    1.000      0.9187      0.8569      0.8370      0.8835       1.012       1.209       1.451       1.719       2.000    
  10    1.000      0.9384      0.8966      0.8945      0.9498       1.072       1.253       1.479       1.733       2.000    

 HEAD WILL BE SAVED ON UNIT 1013 AT END OF TIME STEP    1, STRESS PERIOD    2



         TIME SUMMARY AT END OF TIME STEP    1 IN STRESS PERIOD    2
                    SECONDS     MINUTES      HOURS       DAYS        YEARS
                    -----------------------------------------------------------
   TIME STEP LENGTH 8.64000E+05  14400.      240.00      10.000     2.73785E-02
 STRESS PERIOD TIME 8.64000E+05  14400.      240.00      10.000     2.73785E-02
         TOTAL TIME 9.50400E+06 1.58400E+05  2640.0      110.00     0.30116    

 INNER ITERATION SUMMARY
 --------------------------------------------------------------------------------------------------------------------------------
     TOTAL      OUTER     INNER                    MAXIMUM CHANGE        MAXIMUM                  MAXIMUM RESIDUAL        MAXIMUM
 ITERATION  ITERATION ITERATION                    MODEL-(CELLID)         CHANGE                    MODEL-(CELLID)       RESIDUAL
 --------------------------------------------------------------------------------------------------------------------------------
          1         1         1                     1_GWF-(1,3,4) -0.8206776E-10                     1_GWF-(1,4,6)  0.4423289E-08

1
  HEAD IN LAYER   1 AT END OF TIME STEP   2 IN STRESS PERIOD    2
  ---------------------------------------------------------------------------

            1           2           3           4           5           6           7           8           9          10
 ........................................................................................................................
   1    1.000      0.8731      0.7701      0.7191      0.7509      0.8849       1.103       1.377       1.682       2.000    
   2    1.000      0.8491      0.7181      0.6363      0.6488      0.8007       1.048       1.346       1.668       2.000    
   3    1.000      0.8052      0.6170      0.4592      0.4071      0.6215      0.9411       1.290       1.645       2.000    
   4    1.000      0.7547      0.4855      0.1763     -0.1008      0.3369      0.8051       1.229       1.622       2.000    
   5    1.000      0.7280      0.3941     -0.1388      -1.324      2.1778E-02  0.7131       1.200       1.613       2.000    
   6    1.000      0.7633      0.5017      0.1980     -7.6458E-02  0.3608      0.8256       1.244       1.630       2.000    
   7    1.000      0.8235      0.6515      0.5054      0.4590      0.6721      0.9844       1.322       1.661       2.000    
   8    1.000      0.8793      0.7752      0.7131      0.7350      0.8844       1.118       1.396       1.694       2.000    
   9    1.000      0.9187      0.8569      0.8370      0.8835       1.012       1.209       1.451       1.719       2.000    
  10    1.000      0.9384      0.8966      0.8945      0.9498       1.072       1.253       1.479       1.733       2.000    

 HEAD WILL BE SAVED ON UNIT 1013 AT END OF TIME STEP    2, STRESS PERIOD    2



         TIME SUMMARY AT END OF TIME STEP    2 IN STRESS PERIOD    2
                    SECONDS     MINUTES      HOURS       DAYS        YEARS
                    -----------------------------------------------------------
   TIME STEP LENGTH 8.64000E+05  14400.      240.00      10.000     2.73785E-02
 STRESS PERIOD TIME 1.72800E+06  28800.      480.00      20.000     5.47570E-02
         TOTAL TIME 1.03680E+07 1.72800E+05  2880.0      120.00     0.32854    

 INNER ITERATION SUMMARY
 --------------------------------------------------------------------------------------------------------------------------------
     TOTAL      OUTER     INNER                    MAXIMUM CHANGE        MAXIMUM                  MAXIMUM RESIDUAL        MAXIMUM
 ITERATION  ITERATION ITERATION                    MODEL-(CELLID)         CHANGE                    MODEL-(CELLID)       RESIDUAL
 --------------------------------------------------------------------------------------------------------------------------------
          1         1         1                     1_GWF-(1,3,4) -0.5729399E-10                     1_GWF-(1,4,6)  0.3930510E-08

1
  HEAD IN LAYER   1 AT END OF TIME STEP   3 IN STRESS PERIOD    2
  ---------------------------------------------------------------------------

            1           2           3           4           5           6           7           8           9          10
 ........................................................................................................................
   1    1.000      0.8731      0.7701      0.7191      0.7509      0.8849       1.103       1.377       1.682       2.000    
   2    1.000      0.8491      0.7181      0.6363      0.6488      0.8007       1.048       1.346       1.668       2.000    
   3    1.000      0.8052      0.6170      0.4592      0.4071      0.6215      0.9411       1.290       1.645       2.000    
   4    1.000      0.7547      0.4855      0.1763     -0.1008      0.3369      0.8051       1.229       1.622       2.000    
   5    1.000      0.7280      0.3941     -0.1388      -1.324      2.1778E-02  0.7131       1.200       1.613       2.000    
   6    1.000      0.7633      0.5017      0.1980     -7.6458E-02  0.3608      0.8256       1.244       1.630       2.000    
   7    1.000      0.8235      0.6515      0.5054      0.4590      0.6721      0.9844       1.322       1.661       2.000    
   8    1.000      0.8793      0.7752      0.7131      0.7350      0.8844       1.118       1.396       1.694       2.000    
   9    1.000      0.9187      0.8569      0.8370      0.8835       1.012       1.209       1.451       1.719       2.000    
  10    1.000      0.9384      0.8966      0.8945      0.9498       1.072       1.253       1.479       1.733       2.000    

 HEAD WILL BE SAVED ON UNIT 1013 AT END OF TIME STEP    3, STRESS PERIOD    2



         TIME SUMMARY AT END OF TIME STEP    3 IN STRESS PERIOD    2
                    SECONDS     MINUTES      HOURS       DAYS        YEARS
                    -----------------------------------------------------------
   TIME STEP LENGTH 8.64000E+05  14400.      240.00      10.000     2.73785E-02
 STRESS PERIOD TIME 2.59200E+06  43200.      720.00      30.000     8.21355E-02
         TOTAL TIME 1.12320E+07 1.87200E+05  3120.0      130.00     0.35592    

 INNER ITERATION SUMMARY
 --------------------------------------------------------------------------------------------------------------------------------
     TOTAL      OUTER     INNER                    MAXIMUM CHANGE        MAXIMUM                  MAXIMUM RESIDUAL        MAXIMUM
 ITERATION  ITERATION ITERATION                    MODEL-(CELLID)         CHANGE                    MODEL-(CELLID)       RESIDUAL
 --------------------------------------------------------------------------------------------------------------------------------
          1         1         1                     1_GWF-(1,3,4) -0.4314463E-10                     1_GWF-(1,4,6)  0.3566910E-08

1
  HEAD IN LAYER   1 AT END OF TIME STEP   4 IN STRESS PERIOD    2
  ---------------------------------------------------------------------------

            1           2           3           4           5           6           7           8           9          10
 ........................................................................................................................
   1    1.000      0.8731      0.7701      0.7191      0.7509      0.8849       1.103       1.377       1.682       2.000    
   2    1.000      0.8491      0.7181      0.6363      0.6488      0.8007       1.048       1.346       1.668       2.000    
   3    1.000      0.8052      0.6170      0.4592      0.4071      0.6215      0.9411       1.290       1.645       2.000    
   4    1.000      0.7547      0.4855      0.1763     -0.1008      0.3369      0.8051       1.229       1.622       2.000    
   5    1.000      0.7280      0.3941     -0.1388      -1.324      2.1778E-02  0.7131       1.200       1.613       2.000    
   6    1.000      0.7633      0.5017      0.1980     -7.6458E-02  0.3608      0.8256       1.244       1.630       2.000    
   7    1.000      0.8235      0.6515      0.5054      0.4590      0.6721      0.9844       1.322       1.661       2.000    
   8    1.000      0.8793      0.7752      0.7131      0.7350      0.8844       1.118       1.396       1.694       2.000    
   9    1.000      0.9187      0.8569      0.8370      0.8835       1.012       1.209       1.451       1.719       2.000    
  10    1.000      0.9384      0.8966      0.8945      0.9498       1.072       1.253       1.479       1.733       2.000    

 HEAD WILL BE SAVED ON UNIT 1013 AT END OF TIME STEP    4, STRESS PERIOD    2



         TIME SUMMARY AT END OF TIME STEP    4 IN STRESS PERIOD    2
                    SECONDS     MINUTES      HOURS       DAYS        YEARS
                    -----------------------------------------------------------
   TIME STEP LENGTH 8.64000E+05  14400.      240.00      10.000     2.73785E-02
 STRESS PERIOD TIME 3.45600E+06  57600.      960.00      40.000     0.10951    
         TOTAL TIME 1.20960E+07 2.01600E+05  3360.0      140.00     0.38330    

 INNER ITERATION SUMMARY
 --------------------------------------------------------------------------------------------------------------------------------
     TOTAL      OUTER     INNER                    MAXIMUM CHANGE        MAXIMUM                  MAXIMUM RESIDUAL        MAXIMUM
 ITERATION  ITERATION ITERATION                    MODEL-(CELLID)         CHANGE                    MODEL-(CELLID)       RESIDUAL
 --------------------------------------------------------------------------------------------------------------------------------
          1         1         1                     1_GWF-(1,3,4) -0.3410839E-10                     1_GWF-(1,4,6)  0.3284287E-08

1
  HEAD IN LAYER   1 AT END OF TIME STEP   5 IN STRESS PERIOD    2
  ---------------------------------------------------------------------------

            1           2           3           4           5           6           7           8           9          10
 ........................................................................................................................
   1    1.000      0.8731      0.7701      0.7191      0.7509      0.8849       1.103       1.377       1.682       2.000    
   2    1.000      0.8491      0.7181      0.6363      0.6488      0.8007       1.048       1.346       1.668       2.000    
   3    1.000      0.8052      0.6170      0.4592      0.4071      0.6215      0.9411       1.290       1.645       2.000    
   4    1.000      0.7547      0.4855      0.1763     -0.1008      0.3369      0.8051       1.229       1.622       2.000    
   5    1.000      0.7280      0.3941     -0.1388      -1.324      2.1778E-02  0.7131       1.200       1.613       2.000    
   6    1.000      0.7633      0.5017      0.1980     -7.6458E-02  0.3608      0.8256       1.244       1.630       2.000    
   7    1.000      0.8235      0.6515      0.5054      0.4590      0.6721      0.9844       1.322       1.661       2.000    
   8    1.000      0.8793      0.7752      0.7131      0.7350      0.8844       1.118       1.396       1.694       2.000    
   9    1.000      0.9187      0.8569      0.8370      0.8835       1.012       1.209       1.451       1.719       2.000    
  10    1.000      0.9384      0.8966      0.8945      0.9498       1.072       1.253       1.479       1.733       2.000    

 HEAD WILL BE SAVED ON UNIT 1013 AT END OF TIME STEP    5, STRESS PERIOD    2



         TIME SUMMARY AT END OF TIME STEP    5 IN STRESS PERIOD    2
                    SECONDS     MINUTES      HOURS       DAYS        YEARS
                    -----------------------------------------------------------
   TIME STEP LENGTH 8.64000E+05  14400.      240.00      10.000     2.73785E-02
 STRESS PERIOD TIME 4.32000E+06  72000.      1200.0      50.000     0.13689    
         TOTAL TIME 1.29600E+07 2.16000E+05  3600.0      150.00     0.41068    

 INNER ITERATION SUMMARY
 --------------------------------------------------------------------------------------------------------------------------------
     TOTAL      OUTER     INNER                    MAXIMUM CHANGE        MAXIMUM                  MAXIMUM RESIDUAL        MAXIMUM
 ITERATION  ITERATION ITERATION                    MODEL-(CELLID)         CHANGE                    MODEL-(CELLID)       RESIDUAL
 --------------------------------------------------------------------------------------------------------------------------------
          1         1         1                     1_GWF-(1,3,4) -0.2789917E-10                     1_GWF-(1,4,6)  0.3056450E-08

1
  HEAD IN LAYER   1 AT END OF TIME STEP   6 IN STRESS PERIOD    2
  ---------------------------------------------------------------------------

            1           2           3           4           5           6           7           8           9          10
 ........................................................................................................................
   1    1.000      0.8731      0.7701      0.7191      0.7509      0.8849       1.103       1.377       1.682       2.000    
   2    1.000      0.8491      0.7181      0.6363      0.6488      0.8007       1.048       1.346       1.668       2.000    
   3    1.000      0.8052      0.6170      0.4592      0.4071      0.6215      0.9411       1.290       1.645       2.000    
   4    1.000      0.7547      0.4855      0.1763     -0.1008      0.3369      0.8051       1.229       1.622       2.000    
   5    1.000      0.7280      0.3941     -0.1388      -1.324      2.1778E-02  0.7131       1.200       1.613       2.000    
   6    1.000      0.7633      0.5017      0.1980     -7.6458E-02  0.3608      0.8256       1.244       1.630       2.000    
   7    1.000      0.8235      0.6515      0.5054      0.4590      0.6721      0.9844       1.322       1.661       2.000    
   8    1.000      0.8793      0.7752      0.7131      0.7350      0.8844       1.118       1.396       1.694       2.000    
   9    1.000      0.9187      0.8569      0.8370      0.8835       1.012       1.209       1.451       1.719       2.000    
  10    1.000      0.9384      0.8966      0.8945      0.9498       1.072       1.253       1.479       1.733       2.000    

 HEAD WILL BE SAVED ON UNIT 1013 AT END OF TIME STEP    6, STRESS PERIOD    2



         TIME SUMMARY AT END OF TIME STEP    6 IN STRESS PERIOD    2
                    SECONDS     MINUTES      HOURS       DAYS        YEARS
                    -----------------------------------------------------------
   TIME STEP LENGTH 8.64000E+05  14400.      240.00      10.000     2.73785E-02
 STRESS PERIOD TIME 5.18400E+06  86400.      1440.0      60.000     0.16427    
         TOTAL TIME 1.38240E+07 2.30400E+05  3840.0      160.00     0.43806    

 INNER ITERATION SUMMARY
 --------------------------------------------------------------------------------------------------------------------------------
     TOTAL      OUTER     INNER                    MAXIMUM CHANGE        MAXIMUM                  MAXIMUM RESIDUAL        MAXIMUM
 ITERATION  ITERATION ITERATION                    MODEL-(CELLID)         CHANGE                    MODEL-(CELLID)       RESIDUAL
 --------------------------------------------------------------------------------------------------------------------------------
          1         1         1                     1_GWF-(1,3,4) -0.2340449E-10                     1_GWF-(1,4,6)  0.2867745E-08

1
  HEAD IN LAYER   1 AT END OF TIME STEP   7 IN STRESS PERIOD    2
  ---------------------------------------------------------------------------

            1           2           3           4           5           6           7           8           9          10
 ........................................................................................................................
   1    1.000      0.8731      0.7701      0.7191      0.7509      0.8849       1.103       1.377       1.682       2.000    
   2    1.000      0.8491      0.7181      0.6363      0.6488      0.8007       1.048       1.346       1.668       2.000    
   3    1.000      0.8052      0.6170      0.4592      0.4071      0.6215      0.9411       1.290       1.645       2.000    
   4    1.000      0.7547      0.4855      0.1763     -0.1008      0.3369      0.8051       1.229       1.622       2.000    
   5    1.000      0.7280      0.3941     -0.1388      -1.324      2.1778E-02  0.7131       1.200       1.613       2.000    
   6    1.000      0.7633      0.5017      0.1980     -7.6458E-02  0.3608      0.8256       1.244       1.630       2.000    
   7    1.000      0.8235      0.6515      0.5054      0.4590      0.6721      0.9844       1.322       1.661       2.000    
   8    1.000      0.8793      0.7752      0.7131      0.7350      0.8844       1.118       1.396       1.694       2.000    
   9    1.000      0.9187      0.8569      0.8370      0.8835       1.012       1.209       1.451       1.719       2.000    
  10    1.000      0.9384      0.8966      0.8945      0.9498       1.072       1.253       1.479       1.733       2.000    

 HEAD WILL BE SAVED ON UNIT 1013 AT END OF TIME STEP    7, STRESS PERIOD    2



         TIME SUMMARY AT END OF TIME STEP    7 IN STRESS PERIOD    2
                    SECONDS     MINUTES      HOURS       DAYS        YEARS
                    -----------------------------------------------------------
   TIME STEP LENGTH 8.64000E+05  14400.      240.00      10.000     2.73785E-02
 STRESS PERIOD TIME 6.04800E+06 1.00800E+05  1680.0      70.000     0.19165    
         TOTAL TIME 1.46880E+07 2.44800E+05  4080.0      170.00     0.46543    

 INNER ITERATION SUMMARY
 --------------------------------------------------------------------------------------------------------------------------------
     TOTAL      OUTER     INNER                    MAXIMUM CHANGE        MAXIMUM                  MAXIMUM RESIDUAL        MAXIMUM
 ITERATION  ITERATION ITERATION                    MODEL-(CELLID)         CHANGE                    MODEL-(CELLID)       RESIDUAL
 --------------------------------------------------------------------------------------------------------------------------------
          1         1         1                     1_GWF-(1,3,4) -0.2002122E-10                     1_GWF-(1,4,6)  0.2708150E-08

1
  HEAD IN LAYER   1 AT END OF TIME STEP   8 IN STRESS PERIOD    2
  ---------------------------------------------------------------------------

            1           2           3           4           5           6           7           8           9          10
 ........................................................................................................................
   1    1.000      0.8731      0.7701      0.7191      0.7509      0.8849       1.103       1.377       1.682       2.000    
   2    1.000      0.8491      0.7181      0.6363      0.6488      0.8007       1.048       1.346       1.668       2.000    
   3    1.000      0.8052      0.6170      0.4592      0.4071      0.6215      0.9411       1.290       1.645       2.000    
   4    1.000      0.7547      0.4855      0.1763     -0.1008      0.3369      0.8051       1.229       1.622       2.000    
   5    1.000      0.7280      0.3941     -0.1388      -1.324      2.1778E-02  0.7131       1.200       1.613       2.000    
   6    1.000      0.7633      0.5017      0.1980     -7.6458E-02  0.3608      0.8256       1.244       1.630       2.000    
   7    1.000      0.8235      0.6515      0.5054      0.4590      0.6721      0.9844       1.322       1.661       2.000    
   8    1.000      0.8793      0.7752      0.7131      0.7350      0.8844       1.118       1.396       1.694       2.000    
   9    1.000      0.9187      0.8569      0.8370      0.8835       1.012       1.209       1.451       1.719       2.000    
  10    1.000      0.9384      0.8966      0.8945      0.9498       1.072       1.253       1.479       1.733       2.000    

 HEAD WILL BE SAVED ON UNIT 1013 AT END OF TIME STEP    8, STRESS PERIOD    2



         TIME SUMMARY AT END OF TIME STEP    8 IN STRESS PERIOD    2
                    SECONDS     MINUTES      HOURS       DAYS        YEARS
                    -----------------------------------------------------------
   TIME STEP LENGTH 8.64000E+05  14400.      240.00      10.000     2.73785E-02
 STRESS PERIOD TIME 6.91200E+06 1.15200E+05  1920.0      80.000     0.21903    
         TOTAL TIME 1.55520E+07 2.59200E+05  4320.0      180.00     0.49281    

 INNER ITERATION SUMMARY
 --------------------------------------------------------------------------------------------------------------------------------
     TOTAL      OUTER     INNER                    MAXIMUM CHANGE        MAXIMUM                  MAXIMUM RESIDUAL        MAXIMUM
 ITERATION  ITERATION ITERATION                    MODEL-(CELLID)         CHANGE                    MODEL-(CELLID)       RESIDUAL
 --------------------------------------------------------------------------------------------------------------------------------
          1         1         1                     1_GWF-(1,3,4) -0.1739578E-10                     1_GWF-(1,4,6)  0.2570908E-08

1
  HEAD IN LAYER   1 AT END OF TIME STEP   9 IN STRESS PERIOD    2
  ---------------------------------------------------------------------------

            1           2           3           4           5           6           7           8           9          10
 ........................................................................................................................
   1    1.000      0.8731      0.7701      0.7191      0.7509      0.8849       1.103       1.377       1.682       2.000    
   2    1.000      0.8491      0.7181      0.6363      0.6488      0.8007       1.048       1.346       1.668       2.000    
   3    1.000      0.8052      0.6170      0.4592      0.4071      0.6215      0.9411       1.290       1.645       2.000    
   4    1.000      0.7547      0.4855      0.1763     -0.1008      0.3369      0.8051       1.229       1.622       2.000    
   5    1.000      0.7280      0.3941     -0.1388      -1.324      2.1778E-02  0.7131       1.200       1.613       2.000    
   6    1.000      0.7633      0.5017      0.1980     -7.6458E-02  0.3608      0.8256       1.244       1.630       2.000    
   7    1.000      0.8235      0.6515      0.5054      0.4590      0.6721      0.9844       1.322       1.661       2.000    
   8    1.000      0.8793      0.7752      0.7131      0.7350      0.8844       1.118       1.396       1.694       2.000    
   9    1.000      0.9187      0.8569      0.8370      0.8835       1.012       1.209       1.451       1.719       2.000    
  10    1.000      0.9384      0.8966      0.8945      0.9498       1.072       1.253       1.479       1.733       2.000    

 HEAD WILL BE SAVED ON UNIT 1013 AT END OF TIME STEP    9, STRESS PERIOD    2



         TIME SUMMARY AT END OF TIME STEP    9 IN STRESS PERIOD    2
                    SECONDS     MINUTES      HOURS       DAYS        YEARS
                    -----------------------------------------------------------
   TIME STEP LENGTH 8.64000E+05  14400.      240.00      10.000     2.73785E-02
 STRESS PERIOD TIME 7.77600E+06 1.29600E+05  2160.0      90.000     0.24641    
         TOTAL TIME 1.64160E+07 2.73600E+05  4560.0      190.00     0.52019    

 INNER ITERATION SUMMARY
 --------------------------------------------------------------------------------------------------------------------------------
     TOTAL      OUTER     INNER                    MAXIMUM CHANGE        MAXIMUM                  MAXIMUM RESIDUAL        MAXIMUM
 ITERATION  ITERATION ITERATION                    MODEL-(CELLID)         CHANGE                    MODEL-(CELLID)       RESIDUAL
 --------------------------------------------------------------------------------------------------------------------------------
          1         1         1                     1_GWF-(1,3,4) -0.1530794E-10                     1_GWF-(1,4,6)  0.2451273E-08

1
  HEAD IN LAYER   1 AT END OF TIME STEP  10 IN STRESS PERIOD    2
  ---------------------------------------------------------------------------

            1           2           3           4           5           6           7           8           9          10
 ........................................................................................................................
   1    1.000      0.8731      0.7701      0.7191      0.7509      0.8849       1.103       1.377       1.682       2.000    
   2    1.000      0.8491      0.7181      0.6363      0.6488      0.8007       1.048       1.346       1.668       2.000    
   3    1.000      0.8052      0.6170      0.4592      0.4071      0.6215      0.9411       1.290       1.645       2.000    
   4    1.000      0.7547      0.4855      0.1763     -0.1008      0.3369      0.8051       1.229       1.622       2.000    
   5    1.000      0.7280      0.3941     -0.1388      -1.324      2.1778E-02  0.7131       1.200       1.613       2.000    
   6    1.000      0.7633      0.5017      0.1980     -7.6458E-02  0.3608      0.8256       1.244       1.630       2.000    
   7    1.000      0.8235      0.6515      0.5054      0.4590      0.6721      0.9844       1.322       1.661       2.000    
   8    1.000      0.8793      0.7752      0.7131      0.7350      0.8844       1.118       1.396       1.694       2.000    
   9    1.000      0.9187      0.8569      0.8370      0.8835       1.012       1.209       1.451       1.719       2.000    
  10    1.000      0.9384      0.8966      0.8945      0.9498       1.072       1.253       1.479       1.733       2.000    

 HEAD WILL BE SAVED ON UNIT 1013 AT END OF TIME STEP   10, STRESS PERIOD    2


  VOLUME BUDGET FOR ENTIRE MODEL AT END OF TIME STEP   10, STRESS PERIOD   2
  ---------------------------------------------------------------------------------------------------

     CUMULATIVE VOLUME      L**3       RATES FOR THIS TIME STEP      L**3/T          PACKAGE NAME    
     ------------------                 ------------------------                     ----------------

           IN:                                      IN:
           ---                                      ---
                 WEL =           0.0000                   WEL =           0.0000     WEL-1           
                 CHD =        1222.2222                   CHD =          10.0000     CHD-1           

            TOTAL IN =        1222.2222              TOTAL IN =          10.0000

          OUT:                                     OUT:
          ----                                     ----
                 WEL =        1000.0000                   WEL =          10.0000     WEL-1           
                 CHD =         222.2222                   CHD =           0.0000     CHD-1           

           TOTAL OUT =        1222.2222             TOTAL OUT =          10.0000

            IN - OUT =       4.4389E-07              IN - OUT =       2.7232E-09

 PERCENT DISCREPANCY =           0.00     PERCENT DISCREPANCY =           0.00




         TIME SUMMARY AT END OF TIME STEP   10 IN STRESS PERIOD    2
                    SECONDS     MINUTES      HOURS       DAYS        YEARS
                    -----------------------------------------------------------
   TIME STEP LENGTH 8.64000E+05  14400.      240.00      10.000     2.73785E-02
 STRESS PERIOD TIME 8.64000E+06 1.44000E+05  2400.0      100.00     0.27379    
         TOTAL TIME 1.72800E+07 2.88000E+05  4800.0      200.00     0.54757    

 OUTPUT CONTROL FOR STRESS PERIOD 3 IS REPEATED USING SETTINGS FROM A PREVIOUS STRESS PERIOD.

 REUSING CHDS FROM LAST STRESS PERIOD

 INNER ITERATION SUMMARY
 --------------------------------------------------------------------------------------------------------------------------------
     TOTAL      OUTER     INNER                    MAXIMUM CHANGE        MAXIMUM                  MAXIMUM RESIDUAL        MAXIMUM
 ITERATION  ITERATION ITERATION                    MODEL-(CELLID)         CHANGE                    MODEL-(CELLID)       RESIDUAL
 --------------------------------------------------------------------------------------------------------------------------------
          1         1         1                     1_GWF-(1,5,5)  -2.063053                         1_GWF-(1,4,6)   1.221906    
          2         1         2                     1_GWF-(1,4,6) -0.8405423                         1_GWF-(1,6,4)  -1.063031    
          3         1         3                     1_GWF-(1,3,7) -0.3814530                         1_GWF-(1,7,3) -0.3728537    
          4         1         4                     1_GWF-(1,1,8) -0.1435676                         1_GWF-(1,3,7)  0.9368476E-01
          5         1         5                    1_GWF-(1,10,6) -0.2788843E-01                     1_GWF-(1,2,7) -0.2364424E-01
          6         1         6                    1_GWF-(1,10,7) -0.8344894E-02                     1_GWF-(1,3,7) -0.7285559E-02
          7         1         7                     1_GWF-(1,2,5)  0.3428671E-02                     1_GWF-(1,7,3)  0.3370645E-02
          8         1         8                    1_GWF-(1,10,3) -0.1211894E-02                     1_GWF-(1,8,2)  0.1155304E-02
          9         1         9                     1_GWF-(1,9,4) -0.2666931E-03                     1_GWF-(1,2,8) -0.1809010E-03
         10         1        10                     1_GWF-(1,6,8)  0.4067006E-04                     1_GWF-(1,2,8)  0.3405755E-04
         11         1        11                     1_GWF-(1,6,7)  0.7662557E-05                     1_GWF-(1,8,2)  0.9608657E-05
         12         1        12                     1_GWF-(1,5,7)  0.1975301E-05                     1_GWF-(1,3,7) -0.2400634E-05
         13         1        13                     1_GWF-(1,1,4) -0.5452866E-06                     1_GWF-(1,6,6)  0.3821621E-06
         14         1        14                     1_GWF-(1,2,3) -0.9767181E-07                     1_GWF-(1,4,7) -0.6138971E-07
         15         1        15                     1_GWF-(1,4,7)  0.6528793E-08                     1_GWF-(1,4,6)  0.6381679E-08
         16         2         1                     1_GWF-(1,4,6) -0.1367443E-09                     1_GWF-(1,4,6)  0.5147603E-08

1
  HEAD IN LAYER   1 AT END OF TIME STEP   1 IN STRESS PERIOD    3
  ---------------------------------------------------------------------------

            1           2           3           4           5           6           7           8           9          10
 ........................................................................................................................
   1    1.000      0.6350      0.3180      0.1049      5.7439E-02  0.2143      0.5396      0.9759       1.474       2.000    
   2    1.000      0.5871      0.2140     -6.0735E-02 -0.1469      4.5871E-02  0.4287      0.9137       1.447       2.000    
   3    1.000      0.4993      1.1788E-02 -0.4150     -0.6301     -0.3126      0.2156      0.8028       1.401       2.000    
   4    1.000      0.3983     -0.2512     -0.9808      -1.646     -0.8818     -5.6530E-02  0.6807       1.355       2.000    
   5    1.000      0.3449     -0.4340      -1.611      -4.092      -1.512     -0.2406      0.6218       1.337       2.000    
   6    1.000      0.4155     -0.2188     -0.9374      -1.597     -0.8340     -1.5494E-02  0.7105       1.370       2.000    
   7    1.000      0.5360      8.0699E-02 -0.3225     -0.5264     -0.2113      0.3022      0.8653       1.434       2.000    
   8    1.000      0.6476      0.3282      9.2957E-02  2.5559E-02  0.2132      0.5701       1.015       1.500       2.000    
   9    1.000      0.7262      0.4915      0.3406      0.3225      0.4684      0.7504       1.124       1.550       2.000    
  10    1.000      0.7657      0.5709      0.4556      0.4552      0.5877      0.8393       1.180       1.577       2.000    

 HEAD WILL BE SAVED ON UNIT 1013 AT END OF TIME STEP    1, STRESS PERIOD    3



         TIME SUMMARY AT END OF TIME STEP    1 IN STRESS PERIOD    3
                    SECONDS     MINUTES      HOURS       DAYS        YEARS
                    -----------------------------------------------------------
   TIME STEP LENGTH 1.72800E+06  28800.      480.00      20.000     5.47570E-02
 STRESS PERIOD TIME 1.72800E+06  28800.      480.00      20.000     5.47570E-02
         TOTAL TIME 1.90080E+07 3.16800E+05  5280.0      220.00     0.60233    

 INNER ITERATION SUMMARY
 --------------------------------------------------------------------------------------------------------------------------------
     TOTAL      OUTER     INNER                    MAXIMUM CHANGE        MAXIMUM                  MAXIMUM RESIDUAL        MAXIMUM
 ITERATION  ITERATION ITERATION                    MODEL-(CELLID)         CHANGE                    MODEL-(CELLID)       RESIDUAL
 --------------------------------------------------------------------------------------------------------------------------------
          1         1         1                     1_GWF-(1,3,4) -0.8206776E-10                     1_GWF-(1,4,6)  0.4423287E-08

1
  HEAD IN LAYER   1 AT END OF TIME STEP   2 IN STRESS PERIOD    3
  ---------------------------------------------------------------------------

            1           2           3           4           5           6           7           8           9          10
 ........................................................................................................................
   1    1.000      0.6350      0.3180      0.1049      5.7439E-02  0.2143      0.5396      0.9759       1.474       2.000    
   2    1.000      0.5871      0.2140     -6.0735E-02 -0.1469      4.5871E-02  0.4287      0.9137       1.447       2.000    
   3    1.000      0.4993      1.1788E-02 -0.4150     -0.6301     -0.3126      0.2156      0.8028       1.401       2.000    
   4    1.000      0.3983     -0.2512     -0.9808      -1.646     -0.8818     -5.6530E-02  0.6807       1.355       2.000    
   5    1.000      0.3449     -0.4340      -1.611      -4.092      -1.512     -0.2406      0.6218       1.337       2.000    
   6    1.000      0.4155     -0.2188     -0.9374      -1.597     -0.8340     -1.5494E-02  0.7105       1.370       2.000    
   7    1.000      0.5360      8.0699E-02 -0.3225     -0.5264     -0.2113      0.3022      0.8653       1.434       2.000    
   8    1.000      0.6476      0.3282      9.2957E-02  2.5559E-02  0.2132      0.5701       1.015       1.500       2.000    
   9    1.000      0.7262      0.4915      0.3406      0.3225      0.4684      0.7504       1.124       1.550       2.000    
  10    1.000      0.7657      0.5709      0.4556      0.4552      0.5877      0.8393       1.180       1.577       2.000    

 HEAD WILL BE SAVED ON UNIT 1013 AT END OF TIME STEP    2, STRESS PERIOD    3



         TIME SUMMARY AT END OF TIME STEP    2 IN STRESS PERIOD    3
                    SECONDS     MINUTES      HOURS       DAYS        YEARS
                    -----------------------------------------------------------
   TIME STEP LENGTH 1.72800E+06  28800.      480.00      20.000     5.47570E-02
 STRESS PERIOD TIME 3.45600E+06  57600.      960.00      40.000     0.10951    
         TOTAL TIME 2.07360E+07 3.45600E+05  5760.0      240.00     0.65708    

 INNER ITERATION SUMMARY
 --------------------------------------------------------------------------------------------------------------------------------
     TOTAL      OUTER     INNER                    MAXIMUM CHANGE        MAXIMUM                  MAXIMUM RESIDUAL        MAXIMUM
 ITERATION  ITERATION ITERATION                    MODEL-(CELLID)         CHANGE                    MODEL-(CELLID)       RESIDUAL
 --------------------------------------------------------------------------------------------------------------------------------
          1         1         1                     1_GWF-(1,3,4) -0.5729397E-10                     1_GWF-(1,4,6)  0.3930508E-08

1
  HEAD IN LAYER   1 AT END OF TIME STEP   3 IN STRESS PERIOD    3
  ---------------------------------------------------------------------------

            1           2           3           4           5           6           7           8           9          10
 ........................................................................................................................
   1    1.000      0.6350      0.3180      0.1049      5.7439E-02  0.2143      0.5396      0.9759       1.474       2.000    
   2    1.000      0.5871      0.2140     -6.0735E-02 -0.1469      4.5871E-02  0.4287      0.9137       1.447       2.000    
   3    1.000      0.4993      1.1788E-02 -0.4150     -0.6301     -0.3126      0.2156      0.8028       1.401       2.000    
   4    1.000      0.3983     -0.2512     -0.9808      -1.646     -0.8818     -5.6530E-02  0.6807       1.355       2.000    
   5    1.000      0.3449     -0.4340      -1.611      -4.092      -1.512     -0.2406      0.6218       1.337       2.000    
   6    1.000      0.4155     -0.2188     -0.9374      -1.597     -0.8340     -1.5494E-02  0.7105       1.370       2.000    
   7    1.000      0.5360      8.0699E-02 -0.3225     -0.5264     -0.2113      0.3022      0.8653       1.434       2.000    
   8    1.000      0.6476      0.3282      9.2957E-02  2.5559E-02  0.2132      0.5701       1.015       1.500       2.000    
   9    1.000      0.7262      0.4915      0.3406      0.3225      0.4684      0.7504       1.124       1.550       2.000    
  10    1.000      0.7657      0.5709      0.4556      0.4552      0.5877      0.8393       1.180       1.577       2.000    

 HEAD WILL BE SAVED ON UNIT 1013 AT END OF TIME STEP    3, STRESS PERIOD    3



         TIME SUMMARY AT END OF TIME STEP    3 IN STRESS PERIOD    3
                    SECONDS     MINUTES      HOURS       DAYS        YEARS
                    -----------------------------------------------------------
   TIME STEP LENGTH 1.72800E+06  28800.      480.00      20.000     5.47570E-02
 STRESS PERIOD TIME 5.18400E+06  86400.      1440.0      60.000     0.16427    
         TOTAL TIME 2.24640E+07 3.74400E+05  6240.0      260.00     0.71184    

 INNER ITERATION SUMMARY
 --------------------------------------------------------------------------------------------------------------------------------
     TOTAL      OUTER     INNER                    MAXIMUM CHANGE        MAXIMUM                  MAXIMUM RESIDUAL        MAXIMUM
 ITERATION  ITERATION ITERATION                    MODEL-(CELLID)         CHANGE                    MODEL-(CELLID)       RESIDUAL
 --------------------------------------------------------------------------------------------------------------------------------
          1         1         1                     1_GWF-(1,3,4) -0.4314463E-10                     1_GWF-(1,4,6)  0.3566909E-08

1
  HEAD IN LAYER   1 AT END OF TIME STEP   4 IN STRESS PERIOD    3
  ---------------------------------------------------------------------------

            1           2           3           4           5           6           7           8           9          10
 ........................................................................................................................
   1    1.000      0.6350      0.3180      0.1049      5.7439E-02  0.2143      0.5396      0.9759       1.474       2.000    
   2    1.000      0.5871      0.2140     -6.0735E-02 -0.1469      4.5871E-02  0.4287      0.9137       1.447       2.000    
   3    1.000      0.4993      1.1788E-02 -0.4150     -0.6301     -0.3126      0.2156      0.8028       1.401       2.000    
   4    1.000      0.3983     -0.2512     -0.9808      -1.646     -0.8818     -5.6530E-02  0.6807       1.355       2.000    
   5    1.000      0.3449     -0.4340      -1.611      -4.092      -1.512     -0.2406      0.6218       1.337       2.000    
   6    1.000      0.4155     -0.2188     -0.9374      -1.597     -0.8340     -1.5494E-02  0.7105       1.370       2.000    
   7    1.000      0.5360      8.0699E-02 -0.3225     -0.5264     -0.2113      0.3022      0.8653       1.434       2.000    
   8    1.000      0.6476      0.3282      9.2957E-02  2.5559E-02  0.2132      0.5701       1.015       1.500       2.000    
   9    1.000      0.7262      0.4915      0.3406      0.3225      0.4684      0.7504       1.124       1.550       2.000    
  10    1.000      0.7657      0.5709      0.4556      0.4552      0.5877      0.8393       1.180       1.577       2.000    

 HEAD WILL BE SAVED ON UNIT 1013 AT END OF TIME STEP    4, STRESS PERIOD    3



         TIME SUMMARY AT END OF TIME STEP    4 IN STRESS PERIOD    3
                    SECONDS     MINUTES      HOURS       DAYS        YEARS
                    -----------------------------------------------------------
   TIME STEP LENGTH 1.72800E+06  28800.      480.00      20.000     5.47570E-02
 STRESS PERIOD TIME 6.91200E+06 1.15200E+05  1920.0      80.000     0.21903    
         TOTAL TIME 2.41920E+07 4.03200E+05  6720.0      280.00     0.76660    

 INNER ITERATION SUMMARY
 --------------------------------------------------------------------------------------------------------------------------------
     TOTAL      OUTER     INNER                    MAXIMUM CHANGE        MAXIMUM                  MAXIMUM RESIDUAL        MAXIMUM
 ITERATION  ITERATION ITERATION                    MODEL-(CELLID)         CHANGE                    MODEL-(CELLID)       RESIDUAL
 --------------------------------------------------------------------------------------------------------------------------------
          1         1         1                     1_GWF-(1,3,4) -0.3410839E-10                     1_GWF-(1,4,6)  0.3284286E-08

1
  HEAD IN LAYER   1 AT END OF TIME STEP   5 IN STRESS PERIOD    3
  ---------------------------------------------------------------------------

            1           2           3           4           5           6           7           8           9          10
 ........................................................................................................................
   1    1.000      0.6350      0.3180      0.1049      5.7439E-02  0.2143      0.5396      0.9759       1.474       2.000    
   2    1.000      0.5871      0.2140     -6.0735E-02 -0.1469      4.5871E-02  0.4287      0.9137       1.447       2.000    
   3    1.000      0.4993      1.1788E-02 -0.4150     -0.6301     -0.3126      0.2156      0.8028       1.401       2.000    
   4    1.000      0.3983     -0.2512     -0.9808      -1.646     -0.8818     -5.6530E-02  0.6807       1.355       2.000    
   5    1.000      0.3449     -0.4340      -1.611      -4.092      -1.512     -0.2406      0.6218       1.337       2.000    
   6    1.000      0.4155     -0.2188     -0.9374      -1.597     -0.8340     -1.5494E-02  0.7105       1.370       2.000    
   7    1.000      0.5360      8.0699E-02 -0.3225     -0.5264     -0.2113      0.3022      0.8653       1.434       2.000    
   8    1.000      0.6476      0.3282      9.2957E-02  2.5559E-02  0.2132      0.5701       1.015       1.500       2.000    
   9    1.000      0.7262      0.4915      0.3406      0.3225      0.4684      0.7504       1.124       1.550       2.000    
  10    1.000      0.7657      0.5709      0.4556      0.4552      0.5877      0.8393       1.180       1.577       2.000    

 HEAD WILL BE SAVED ON UNIT 1013 AT END OF TIME STEP    5, STRESS PERIOD    3


  VOLUME BUDGET FOR ENTIRE MODEL AT END OF TIME STEP    5, STRESS PERIOD   3
  ---------------------------------------------------------------------------------------------------

     CUMULATIVE VOLUME      L**3       RATES FOR THIS TIME STEP      L**3/T          PACKAGE NAME    
     ------------------                 ------------------------                     ----------------

           IN:                                      IN:
           ---                                      ---
                 WEL =           0.0000                   WEL =           0.0000     WEL-1           
                 CHD =        3222.2222                   CHD =          20.0000     CHD-1           

            TOTAL IN =        3222.2222              TOTAL IN =          20.0000

          OUT:                                     OUT:
          ----                                     ----
                 WEL =        3000.0000                   WEL =          20.0000     WEL-1           
                 CHD =         222.2222                   CHD =           0.0000     CHD-1           

           TOTAL OUT =        3222.2222             TOTAL OUT =          20.0000

            IN - OUT =       8.3570E-07              IN - OUT =       3.3671E-09

 PERCENT DISCREPANCY =           0.00     PERCENT DISCREPANCY =           0.00




         TIME SUMMARY AT END OF TIME STEP    5 IN STRESS PERIOD    3
                    SECONDS     MINUTES      HOURS       DAYS        YEARS
                    -----------------------------------------------------------
   TIME STEP LENGTH 1.72800E+06  28800.      480.00      20.000     5.47570E-02
 STRESS PERIOD TIME 8.64000E+06 1.44000E+05  2400.0      100.00     0.27379    
         TOTAL TIME 2.59200E+07 4.32000E+05  7200.0      300.00     0.82136    

 OUTPUT CONTROL FOR STRESS PERIOD 4 IS REPEATED USING SETTINGS FROM A PREVIOUS STRESS PERIOD.

 REUSING WELS FROM LAST STRESS PERIOD

 REUSING CHDS FROM LAST STRESS PERIOD

 INNER ITERATION SUMMARY
 --------------------------------------------------------------------------------------------------------------------------------
     TOTAL      OUTER     INNER                    MAXIMUM CHANGE        MAXIMUM                  MAXIMUM RESIDUAL        MAXIMUM
 ITERATION  ITERATION ITERATION                    MODEL-(CELLID)         CHANGE                    MODEL-(CELLID)       RESIDUAL
 --------------------------------------------------------------------------------------------------------------------------------
          1         1         1                     1_GWF-(1,3,4) -0.2789918E-10                     1_GWF-(1,4,6)  0.3056449E-08

1
  HEAD IN LAYER   1 AT END OF TIME STEP   1 IN STRESS PERIOD    4
  ---------------------------------------------------------------------------

            1           2           3           4           5           6           7           8           9          10
 ........................................................................................................................
   1    1.000      0.6350      0.3180      0.1049      5.7439E-02  0.2143      0.5396      0.9759       1.474       2.000    
   2    1.000      0.5871      0.2140     -6.0735E-02 -0.1469      4.5871E-02  0.4287      0.9137       1.447       2.000    
   3    1.000      0.4993      1.1788E-02 -0.4150     -0.6301     -0.3126      0.2156      0.8028       1.401       2.000    
   4    1.000      0.3983     -0.2512     -0.9808      -1.646     -0.8818     -5.6530E-02  0.6807       1.355       2.000    
   5    1.000      0.3449     -0.4340      -1.611      -4.092      -1.512     -0.2406      0.6218       1.337       2.000    
   6    1.000      0.4155     -0.2188     -0.9374      -1.597     -0.8340     -1.5494E-02  0.7105       1.370       2.000    
   7    1.000      0.5360      8.0699E-02 -0.3225     -0.5264     -0.2113      0.3022      0.8653       1.434       2.000    
   8    1.000      0.6476      0.3282      9.2957E-02  2.5559E-02  0.2132      0.5701       1.015       1.500       2.000    
   9    1.000      0.7262      0.4915      0.3406      0.3225      0.4684      0.7504       1.124       1.550       2.000    
  10    1.000      0.7657      0.5709      0.4556      0.4552      0.5877      0.8393       1.180       1.577       2.000    

 HEAD WILL BE SAVED ON UNIT 1013 AT END OF TIME STEP    1, STRESS PERIOD    4



         TIME SUMMARY AT END OF TIME STEP    1 IN STRESS PERIOD    4
                    SECONDS     MINUTES      HOURS       DAYS        YEARS
                    -----------------------------------------------------------
   TIME STEP LENGTH 8.64000E+05  14400.      240.00      10.000     2.73785E-02
 STRESS PERIOD TIME 8.64000E+05  14400.      240.00      10.000     2.73785E-02
         TOTAL TIME 2.67840E+07 4.46400E+05  7440.0      310.00     0.84873    

 INNER ITERATION SUMMARY
 --------------------------------------------------------------------------------------------------------------------------------
     TOTAL      OUTER     INNER                    MAXIMUM CHANGE        MAXIMUM                  MAXIMUM RESIDUAL        MAXIMUM
 ITERATION  ITERATION ITERATION                    MODEL-(CELLID)         CHANGE                    MODEL-(CELLID)       RESIDUAL
 --------------------------------------------------------------------------------------------------------------------------------
          1         1         1                     1_GWF-(1,3,4) -0.2340448E-10                     1_GWF-(1,4,6)  0.2867744E-08

1
  HEAD IN LAYER   1 AT END OF TIME STEP   2 IN STRESS PERIOD    4
  ---------------------------------------------------------------------------

            1           2           3           4           5           6           7           8           9          10
 ........................................................................................................................
   1    1.000      0.6350      0.3180      0.1049      5.7439E-02  0.2143      0.5396      0.9759       1.474       2.000    
   2    1.000      0.5871      0.2140     -6.0735E-02 -0.1469      4.5871E-02  0.4287      0.9137       1.447       2.000    
   3    1.000      0.4993      1.1788E-02 -0.4150     -0.6301     -0.3126      0.2156      0.8028       1.401       2.000    
   4    1.000      0.3983     -0.2512     -0.9808      -1.646     -0.8818     -5.6530E-02  0.6807       1.355       2.000    
   5    1.000      0.3449     -0.4340      -1.611      -4.092      -1.512     -0.2406      0.6218       1.337       2.000    
   6    1.000      0.4155     -0.2188     -0.9374      -1.597     -0.8340     -1.5494E-02  0.7105       1.370       2.000    
   7    1.000      0.5360      8.0699E-02 -0.3225     -0.5264     -0.2113      0.3022      0.8653       1.434       2.000    
   8    1.000      0.6476      0.3282      9.2957E-02  2.5559E-02  0.2132      0.5701       1.015       1.500       2.000    
   9    1.000      0.7262      0.4915      0.3406      0.3225      0.4684      0.7504       1.124       1.550       2.000    
  10    1.000      0.7657      0.5709      0.4556      0.4552      0.5877      0.8393       1.180       1.577       2.000    

 HEAD WILL BE SAVED ON UNIT 1013 AT END OF TIME STEP    2, STRESS PERIOD    4



         TIME SUMMARY AT END OF TIME STEP    2 IN STRESS PERIOD    4
                    SECONDS     MINUTES      HOURS       DAYS        YEARS
                    -----------------------------------------------------------
   TIME STEP LENGTH 8.64000E+05  14400.      240.00      10.000     2.73785E-02
 STRESS PERIOD TIME 1.72800E+06  28800.      480.00      20.000     5.47570E-02
         TOTAL TIME 2.76480E+07 4.60800E+05  7680.0      320.00     0.87611    

 INNER ITERATION SUMMARY
 --------------------------------------------------------------------------------------------------------------------------------
     TOTAL      OUTER     INNER                    MAXIMUM CHANGE        MAXIMUM                  MAXIMUM RESIDUAL        MAXIMUM
 ITERATION  ITERATION ITERATION                    MODEL-(CELLID)         CHANGE                    MODEL-(CELLID)       RESIDUAL
 --------------------------------------------------------------------------------------------------------------------------------
          1         1         1                     1_GWF-(1,3,4) -0.2002123E-10                     1_GWF-(1,4,6)  0.2708149E-08

1
  HEAD IN LAYER   1 AT END OF TIME STEP   3 IN STRESS PERIOD    4
  ---------------------------------------------------------------------------

            1           2           3           4           5           6           7           8           9          10
 ........................................................................................................................
   1    1.000      0.6350      0.3180      0.1049      5.7439E-02  0.2143      0.5396      0.9759       1.474       2.000    
   2    1.000      0.5871      0.2140     -6.0735E-02 -0.1469      4.5871E-02  0.4287      0.9137       1.447       2.000    
[...]
  10    1.000      0.7657      0.5709      0.4556      0.4552      0.5877      0.8393       1.180       1.577       2.000    

 HEAD WILL BE SAVED ON UNIT 1013 AT END OF TIME STEP   10, STRESS PERIOD    4


  VOLUME BUDGET FOR ENTIRE MODEL AT END OF TIME STEP   10, STRESS PERIOD   4
  ---------------------------------------------------------------------------------------------------

     CUMULATIVE VOLUME      L**3       RATES FOR THIS TIME STEP      L**3/T          PACKAGE NAME    
     ------------------                 ------------------------                     ----------------

           IN:                                      IN:
           ---                                      ---
                 WEL =           0.0000                   WEL =           0.0000     WEL-1           
                 CHD =        5222.2222                   CHD =          20.0000     CHD-1           

            TOTAL IN =        5222.2222              TOTAL IN =          20.0000

          OUT:                                     OUT:
          ----                                     ----
                 WEL =        5000.0000                   WEL =          20.0000     WEL-1           
                 CHD =         222.2222                   CHD =           0.0000     CHD-1           

           TOTAL OUT =        5222.2222             TOTAL OUT =          20.0000

            IN - OUT =       1.1077E-06              IN - OUT =       2.3668E-09

 PERCENT DISCREPANCY =           0.00     PERCENT DISCREPANCY =           0.00




         TIME SUMMARY AT END OF TIME STEP   10 IN STRESS PERIOD    4
                    SECONDS     MINUTES      HOURS       DAYS        YEARS
                    -----------------------------------------------------------
   TIME STEP LENGTH 8.64000E+05  14400.      240.00      10.000     2.73785E-02
 STRESS PERIOD TIME 8.64000E+06 1.44000E+05  2400.0      100.00     0.27379    
         TOTAL TIME 3.45600E+07 5.76000E+05  9600.0      400.00      1.0951    

 OUTPUT CONTROL FOR STRESS PERIOD 5 IS REPEATED USING SETTINGS FROM A PREVIOUS STRESS PERIOD.

 REUSING CHDS FROM LAST STRESS PERIOD

 INNER ITERATION SUMMARY
 --------------------------------------------------------------------------------------------------------------------------------
     TOTAL      OUTER     INNER                    MAXIMUM CHANGE        MAXIMUM                  MAXIMUM RESIDUAL        MAXIMUM
 ITERATION  ITERATION ITERATION                    MODEL-(CELLID)         CHANGE                    MODEL-(CELLID)       RESIDUAL
 --------------------------------------------------------------------------------------------------------------------------------
          1         1         1                     1_GWF-(1,5,5)   4.126105                         1_GWF-(1,4,6)  -2.443812    
          2         1         2                     1_GWF-(1,4,6)   1.681085                         1_GWF-(1,6,4)   2.126062    
          3         1         3                     1_GWF-(1,3,7)  0.7629061                         1_GWF-(1,7,3)  0.7457073    
          4         1         4                     1_GWF-(1,1,8)  0.2871351                         1_GWF-(1,3,7) -0.1873695    
          5         1         5                    1_GWF-(1,10,6)  0.5577685E-01                     1_GWF-(1,2,7)  0.4728849E-01
          6         1         6                    1_GWF-(1,10,7)  0.1668979E-01                     1_GWF-(1,3,7)  0.1457112E-01
          7         1         7                     1_GWF-(1,2,5) -0.6857343E-02                     1_GWF-(1,7,3) -0.6741290E-02
          8         1         8                    1_GWF-(1,10,3)  0.2423787E-02                     1_GWF-(1,8,2) -0.2310609E-02
          9         1         9                     1_GWF-(1,9,4)  0.5333862E-03                     1_GWF-(1,2,8)  0.3618020E-03
         10         1        10                     1_GWF-(1,6,8) -0.8134012E-04                     1_GWF-(1,2,8) -0.6811511E-04
         11         1        11                     1_GWF-(1,6,7) -0.1532512E-04                     1_GWF-(1,8,2) -0.1921732E-04
         12         1        12                     1_GWF-(1,5,7) -0.3950610E-05                     1_GWF-(1,3,7)  0.4801314E-05
         13         1        13                     1_GWF-(1,1,4)  0.1090628E-05                     1_GWF-(1,6,6) -0.7644289E-06
         14         1        14                     1_GWF-(1,2,3)  0.1954786E-06                     1_GWF-(1,4,7)  0.1231355E-06
         15         1        15                     1_GWF-(1,4,7) -0.1374578E-07                     1_GWF-(1,4,6) -0.1196120E-07
         16         1        16                     1_GWF-(1,3,4)  0.6441750E-09                     1_GWF-(1,4,6) -0.6565828E-08
         17         2         1                     1_GWF-(1,3,4)  0.1810272E-09                     1_GWF-(1,4,6) -0.5179283E-08

1
  HEAD IN LAYER   1 AT END OF TIME STEP   1 IN STRESS PERIOD    5
  ---------------------------------------------------------------------------

            1           2           3           4           5           6           7           8           9          10
 ........................................................................................................................
   1    1.000       1.111       1.222       1.333       1.444       1.556       1.667       1.778       1.889       2.000    
   2    1.000       1.111       1.222       1.333       1.444       1.556       1.667       1.778       1.889       2.000    
   3    1.000       1.111       1.222       1.333       1.444       1.556       1.667       1.778       1.889       2.000    
   4    1.000       1.111       1.222       1.333       1.444       1.556       1.667       1.778       1.889       2.000    
   5    1.000       1.111       1.222       1.333       1.444       1.556       1.667       1.778       1.889       2.000    
   6    1.000       1.111       1.222       1.333       1.444       1.556       1.667       1.778       1.889       2.000    
   7    1.000       1.111       1.222       1.333       1.444       1.556       1.667       1.778       1.889       2.000    
   8    1.000       1.111       1.222       1.333       1.444       1.556       1.667       1.778       1.889       2.000    
   9    1.000       1.111       1.222       1.333       1.444       1.556       1.667       1.778       1.889       2.000    
  10    1.000       1.111       1.222       1.333       1.444       1.556       1.667       1.778       1.889       2.000    

 HEAD WILL BE SAVED ON UNIT 1013 AT END OF TIME STEP    1, STRESS PERIOD    5



         TIME SUMMARY AT END OF TIME STEP    1 IN STRESS PERIOD    5
                    SECONDS     MINUTES      HOURS       DAYS        YEARS
                    -----------------------------------------------------------
   TIME STEP LENGTH 1.72800E+06  28800.      480.00      20.000     5.47570E-02
 STRESS PERIOD TIME 1.72800E+06  28800.      480.00      20.000     5.47570E-02
         TOTAL TIME 3.62880E+07 6.04800E+05  10080.      420.00      1.1499    

 INNER ITERATION SUMMARY
 --------------------------------------------------------------------------------------------------------------------------------
     TOTAL      OUTER     INNER                    MAXIMUM CHANGE        MAXIMUM                  MAXIMUM RESIDUAL        MAXIMUM
 ITERATION  ITERATION ITERATION                    MODEL-(CELLID)         CHANGE                    MODEL-(CELLID)       RESIDUAL
 --------------------------------------------------------------------------------------------------------------------------------
          1         1         1                     1_GWF-(1,3,4)  0.1018421E-09                     1_GWF-(1,4,6) -0.4417744E-08

1
  HEAD IN LAYER   1 AT END OF TIME STEP   2 IN STRESS PERIOD    5
  ---------------------------------------------------------------------------

            1           2           3           4           5           6           7           8           9          10
 ........................................................................................................................
   1    1.000       1.111       1.222       1.333       1.444       1.556       1.667       1.778       1.889       2.000    
   2    1.000       1.111       1.222       1.333       1.444       1.556       1.667       1.778       1.889       2.000    
   3    1.000       1.111       1.222       1.333       1.444       1.556       1.667       1.778       1.889       2.000    
   4    1.000       1.111       1.222       1.333       1.444       1.556       1.667       1.778       1.889       2.000    
   5    1.000       1.111       1.222       1.333       1.444       1.556       1.667       1.778       1.889       2.000    
   6    1.000       1.111       1.222       1.333       1.444       1.556       1.667       1.778       1.889       2.000    
   7    1.000       1.111       1.222       1.333       1.444       1.556       1.667       1.778       1.889       2.000    
   8    1.000       1.111       1.222       1.333       1.444       1.556       1.667       1.778       1.889       2.000    
   9    1.000       1.111       1.222       1.333       1.444       1.556       1.667       1.778       1.889       2.000    
  10    1.000       1.111       1.222       1.333       1.444       1.556       1.667       1.778       1.889       2.000    

 HEAD WILL BE SAVED ON UNIT 1013 AT END OF TIME STEP    2, STRESS PERIOD    5



         TIME SUMMARY AT END OF TIME STEP    2 IN STRESS PERIOD    5
                    SECONDS     MINUTES      HOURS       DAYS        YEARS
                    -----------------------------------------------------------
   TIME STEP LENGTH 1.72800E+06  28800.      480.00      20.000     5.47570E-02
 STRESS PERIOD TIME 3.45600E+06  57600.      960.00      40.000     0.10951    
         TOTAL TIME 3.80160E+07 6.33600E+05  10560.      440.00      1.2047    

 INNER ITERATION SUMMARY
 --------------------------------------------------------------------------------------------------------------------------------
     TOTAL      OUTER     INNER                    MAXIMUM CHANGE        MAXIMUM                  MAXIMUM RESIDUAL        MAXIMUM
 ITERATION  ITERATION ITERATION                    MODEL-(CELLID)         CHANGE                    MODEL-(CELLID)       RESIDUAL
 --------------------------------------------------------------------------------------------------------------------------------
          1         1         1                     1_GWF-(1,3,4)  0.6850571E-10                     1_GWF-(1,4,6) -0.3914104E-08

1
  HEAD IN LAYER   1 AT END OF TIME STEP   3 IN STRESS PERIOD    5
  ---------------------------------------------------------------------------

            1           2           3           4           5           6           7           8           9          10
 ........................................................................................................................
   1    1.000       1.111       1.222       1.333       1.444       1.556       1.667       1.778       1.889       2.000    
   2    1.000       1.111       1.222       1.333       1.444       1.556       1.667       1.778       1.889       2.000    
   3    1.000       1.111       1.222       1.333       1.444       1.556       1.667       1.778       1.889       2.000    
   4    1.000       1.111       1.222       1.333       1.444       1.556       1.667       1.778       1.889       2.000    
   5    1.000       1.111       1.222       1.333       1.444       1.556       1.667       1.778       1.889       2.000    
   6    1.000       1.111       1.222       1.333       1.444       1.556       1.667       1.778       1.889       2.000    
   7    1.000       1.111       1.222       1.333       1.444       1.556       1.667       1.778       1.889       2.000    
   8    1.000       1.111       1.222       1.333       1.444       1.556       1.667       1.778       1.889       2.000    
   9    1.000       1.111       1.222       1.333       1.444       1.556       1.667       1.778       1.889       2.000    
  10    1.000       1.111       1.222       1.333       1.444       1.556       1.667       1.778       1.889       2.000    

 HEAD WILL BE SAVED ON UNIT 1013 AT END OF TIME STEP    3, STRESS PERIOD    5



         TIME SUMMARY AT END OF TIME STEP    3 IN STRESS PERIOD    5
                    SECONDS     MINUTES      HOURS       DAYS        YEARS
                    -----------------------------------------------------------
   TIME STEP LENGTH 1.72800E+06  28800.      480.00      20.000     5.47570E-02
 STRESS PERIOD TIME 5.18400E+06  86400.      1440.0      60.000     0.16427    
         TOTAL TIME 3.97440E+07 6.62400E+05  11040.      460.00      1.2594    

 INNER ITERATION SUMMARY
 --------------------------------------------------------------------------------------------------------------------------------
     TOTAL      OUTER     INNER                    MAXIMUM CHANGE        MAXIMUM                  MAXIMUM RESIDUAL        MAXIMUM
 ITERATION  ITERATION ITERATION                    MODEL-(CELLID)         CHANGE                    MODEL-(CELLID)       RESIDUAL
 --------------------------------------------------------------------------------------------------------------------------------
          1         1         1                     1_GWF-(1,3,4)  0.5045057E-10                     1_GWF-(1,4,6) -0.3548136E-08

1
  HEAD IN LAYER   1 AT END OF TIME STEP   4 IN STRESS PERIOD    5
  ---------------------------------------------------------------------------

            1           2           3           4           5           6           7           8           9          10
 ........................................................................................................................
   1    1.000       1.111       1.222       1.333       1.444       1.556       1.667       1.778       1.889       2.000    
   2    1.000       1.111       1.222       1.333       1.444       1.556       1.667       1.778       1.889       2.000    
   3    1.000       1.111       1.222       1.333       1.444       1.556       1.667       1.778       1.889       2.000    
   4    1.000       1.111       1.222       1.333       1.444       1.556       1.667       1.778       1.889       2.000    
   5    1.000       1.111       1.222       1.333       1.444       1.556       1.667       1.778       1.889       2.000    
   6    1.000       1.111       1.222       1.333       1.444       1.556       1.667       1.778       1.889       2.000    
   7    1.000       1.111       1.222       1.333       1.444       1.556       1.667       1.778       1.889       2.000    
   8    1.000       1.111       1.222       1.333       1.444       1.556       1.667       1.778       1.889       2.000    
   9    1.000       1.111       1.222       1.333       1.444       1.556       1.667       1.778       1.889       2.000    
  10    1.000       1.111       1.222       1.333       1.444       1.556       1.667       1.778       1.889       2.000    

 HEAD WILL BE SAVED ON UNIT 1013 AT END OF TIME STEP    4, STRESS PERIOD    5



         TIME SUMMARY AT END OF TIME STEP    4 IN STRESS PERIOD    5
                    SECONDS     MINUTES      HOURS       DAYS        YEARS
                    -----------------------------------------------------------
   TIME STEP LENGTH 1.72800E+06  28800.      480.00      20.000     5.47570E-02
 STRESS PERIOD TIME 6.91200E+06 1.15200E+05  1920.0      80.000     0.21903    
         TOTAL TIME 4.14720E+07 6.91200E+05  11520.      480.00      1.3142    

 INNER ITERATION SUMMARY
 --------------------------------------------------------------------------------------------------------------------------------
     TOTAL      OUTER     INNER                    MAXIMUM CHANGE        MAXIMUM                  MAXIMUM RESIDUAL        MAXIMUM
 ITERATION  ITERATION ITERATION                    MODEL-(CELLID)         CHANGE                    MODEL-(CELLID)       RESIDUAL
 --------------------------------------------------------------------------------------------------------------------------------
          1         1         1                     1_GWF-(1,3,4)  0.3928845E-10                     1_GWF-(1,4,6) -0.3266302E-08

1
  HEAD IN LAYER   1 AT END OF TIME STEP   5 IN STRESS PERIOD    5
  ---------------------------------------------------------------------------

            1           2           3           4           5           6           7           8           9          10
 ........................................................................................................................
   1    1.000       1.111       1.222       1.333       1.444       1.556       1.667       1.778       1.889       2.000    
   2    1.000       1.111       1.222       1.333       1.444       1.556       1.667       1.778       1.889       2.000    
   3    1.000       1.111       1.222       1.333       1.444       1.556       1.667       1.778       1.889       2.000    
   4    1.000       1.111       1.222       1.333       1.444       1.556       1.667       1.778       1.889       2.000    
   5    1.000       1.111       1.222       1.333       1.444       1.556       1.667       1.778       1.889       2.000    
   6    1.000       1.111       1.222       1.333       1.444       1.556       1.667       1.778       1.889       2.000    
   7    1.000       1.111       1.222       1.333       1.444       1.556       1.667       1.778       1.889       2.000    
   8    1.000       1.111       1.222       1.333       1.444       1.556       1.667       1.778       1.889       2.000    
   9    1.000       1.111       1.222       1.333       1.444       1.556       1.667       1.778       1.889       2.000    
  10    1.000       1.111       1.222       1.333       1.444       1.556       1.667       1.778       1.889       2.000    

 HEAD WILL BE SAVED ON UNIT 1013 AT END OF TIME STEP    5, STRESS PERIOD    5


  VOLUME BUDGET FOR ENTIRE MODEL AT END OF TIME STEP    5, STRESS PERIOD   5
  ---------------------------------------------------------------------------------------------------

     CUMULATIVE VOLUME      L**3       RATES FOR THIS TIME STEP      L**3/T          PACKAGE NAME    
     ------------------                 ------------------------                     ----------------

           IN:                                      IN:
           ---                                      ---
                 WEL =           0.0000                   WEL =           0.0000     WEL-1           
                 CHD =        5444.4444                   CHD =           2.2222     CHD-1           

            TOTAL IN =        5444.4444              TOTAL IN =           2.2222

          OUT:                                     OUT:
          ----                                     ----
                 WEL =        5000.0000                   WEL =           0.0000     WEL-1           
                 CHD =         444.4444                   CHD =           2.2222     CHD-1           

           TOTAL OUT =        5444.4444             TOTAL OUT =           2.2222

            IN - OUT =       7.2340E-07              IN - OUT =      -3.2925E-09

 PERCENT DISCREPANCY =           0.00     PERCENT DISCREPANCY =          -0.00




         TIME SUMMARY AT END OF TIME STEP    5 IN STRESS PERIOD    5
                    SECONDS     MINUTES      HOURS       DAYS        YEARS
                    -----------------------------------------------------------
   TIME STEP LENGTH 1.72800E+06  28800.      480.00      20.000     5.47570E-02
 STRESS PERIOD TIME 8.64000E+06 1.44000E+05  2400.0      100.00     0.27379    
         TOTAL TIME 4.32000E+07 7.20000E+05  12000.      500.00      1.3689    
