                                   MODFLOW 6
                U.S. GEOLOGICAL SURVEY MODULAR HYDROLOGIC MODEL
                          GROUNDWATER FLOW MODEL (GWF)
                            VERSION 6.0.5 03/31/2019
                               ***DEVELOP MODE***

   MODFLOW 6 compiled Dec 10 2019 14:55:24 with IFORT compiler (ver. 19.0.5)

This software is preliminary or provisional and is subject to 
revision. It is being provided to meet the need for timely best 
science. The software has not received final approval by the U.S. 
Geological Survey (USGS). No warranty, expressed or implied, is made 
by the USGS or the U.S. Government as to the functionality of the 
software and related material nor shall the fact of release 
constitute any such warranty. The software is provided on the 
condition that neither the USGS nor the U.S. Government shall be held 
liable for any damages resulting from the authorized or unauthorized 
use of the software.


MODFLOW was compiled using uniform precision.
Precision of REAL variables: 15


 OPENED .\testje.dis
 FILE TYPE:DIS6                   UNIT 1005   STATUS:OLD                 
 FORMAT:FORMATTED              ACCESS:SEQUENTIAL          
 ACTION:READ                


 OPENED .\testje.ic
 FILE TYPE:IC6                    UNIT 1006   STATUS:OLD                 
 FORMAT:FORMATTED              ACCESS:SEQUENTIAL          
 ACTION:READ                


 OPENED .\testje.npf
 FILE TYPE:NPF6                   UNIT 1007   STATUS:OLD                 
 FORMAT:FORMATTED              ACCESS:SEQUENTIAL          
 ACTION:READ                


 OPENED .\testje.oc
 FILE TYPE:OC6                    UNIT 1008   STATUS:OLD                 
 FORMAT:FORMATTED              ACCESS:SEQUENTIAL          
 ACTION:READ                


 OPENED .\testje.chd
 FILE TYPE:CHD6                   UNIT 1009   STATUS:OLD                 
 FORMAT:FORMATTED              ACCESS:SEQUENTIAL          
 ACTION:READ                


 DIS -- STRUCTURED GRID DISCRETIZATION PACKAGE, VERSION 2 : 3/27/2014 - INPUT READ FROM UNIT 1005


 # discretization
 PROCESSING DISCRETIZATION OPTIONS
    MODEL LENGTH UNIT IS METERS
 END OF DISCRETIZATION OPTIONS
 # The DIMENSIONS block is required
 PROCESSING DISCRETIZATION DIMENSIONS
    NLAY =       1
    NROW =      10
    NCOL =      10
 END OF DISCRETIZATION DIMENSIONS
 # The GRIDDATA block is required
 PROCESSING GRIDDATA

                     DELR =   1.000000    

                     DELC =   1.000000    

 TOP ELEVATION OF LAYER 1 =   0.000000    

   MODEL LAYER BOTTOM EL. =  -2.000000    
 END PROCESSING GRIDDATA

 NPF -- NODE PROPERTY FLOW PACKAGE, VERSION 1, 3/30/2015 INPUT READ FROM UNIT 1007


 PROCESSING NPF OPTIONS
 END OF NPF OPTIONS

 CHD   -- CHD PACKAGE, VERSION 8, 2/22/2014 INPUT READ FROM UNIT 1009

 PROCESSING CHD OPTIONS
 END OF CHD OPTIONS
 # The DIMENSIONS block is required

 PROCESSING CHD DIMENSIONS
    MAXBOUND =      20
 END OF CHD DIMENSIONS

 IC -- INITIAL CONDITIONS PACKAGE, VERSION 8, 3/28/2015 INPUT READ FROM UNIT 1006
 PROCESSING IC OPTIONS
 END OF IC OPTIONS
 PROCESSING GRIDDATA

     INITIAL HEAD =   0.000000    
 END PROCESSING GRIDDATA
 PROCESSING GRIDDATA

                ICELLTYPE = 0

                        K =   1.000000    

                      K33 =   1.000000    
 K22 not provided.  Assuming K22 = K.
 END PROCESSING GRIDDATA
    BINARY GRID INFORMATION WILL BE WRITTEN TO:
      UNIT NUMBER: 1011
      FILE NAME: c:\checkouts\modflow-debug-gui\data\ex_10x10\testje.dis.grb

 OPENED c:\checkouts\modflow-debug-gui\data\ex_10x10\testje.dis.grb
 FILE TYPE:DATA(BINARY)   UNIT 1011   STATUS:REPLACE             
 FORMAT:UNFORMATTED            ACCESS:STREAM              
 ACTION:READWRITE           

      THE LAST TIME STEP WILL BE PRINTED
      THE LAST TIME STEP WILL BE PRINTED
 PROCESSING OC OPTIONS
    HEAD INFORMATION WILL BE WRITTEN TO:
      UNIT NUMBER: 1012
      FILE NAME: .\testje.hds

 OPENED .\testje.hds
 FILE TYPE:DATA(BINARY)   UNIT 1012   STATUS:REPLACE             
 FORMAT:UNFORMATTED            ACCESS:STREAM              
 ACTION:READWRITE           

 END OF OC OPTIONS

 BEGIN READING OUTPUT CONTROL FOR STRESS PERIOD 1
      ALL TIME STEPS WILL BE SAVED
      ALL TIME STEPS WILL BE PRINTED

 END READING OUTPUT CONTROL FOR STRESS PERIOD 1
 #The following block of constant-head cells will be activated
 #for stress period 1. This block will remain active throughout
 #the simulation.
 # l r c head
 # left
1
  HEAD IN LAYER   1 AT END OF TIME STEP   1 IN STRESS PERIOD    1
  ---------------------------------------------------------------------------

            1           2           3           4           5           6           7           8           9          10
 ........................................................................................................................
   1    1.000       1.111       1.222       1.333       1.444       1.556       1.667       1.778       1.889       2.000    
   2    1.000       1.111       1.222       1.333       1.444       1.556       1.667       1.778       1.889       2.000    
   3    1.000       1.111       1.222       1.333       1.444       1.556       1.667       1.778       1.889       2.000    
   4    1.000       1.111       1.222       1.333       1.444       1.556       1.667       1.778       1.889       2.000    
   5    1.000       1.111       1.222       1.333       1.444       1.556       1.667       1.778       1.889       2.000    
   6    1.000       1.111       1.222       1.333       1.444       1.556       1.667       1.778       1.889       2.000    
   7    1.000       1.111       1.222       1.333       1.444       1.556       1.667       1.778       1.889       2.000    
   8    1.000       1.111       1.222       1.333       1.444       1.556       1.667       1.778       1.889       2.000    
   9    1.000       1.111       1.222       1.333       1.444       1.556       1.667       1.778       1.889       2.000    
  10    1.000       1.111       1.222       1.333       1.444       1.556       1.667       1.778       1.889       2.000    
1
  HEAD IN LAYER   2 AT END OF TIME STEP   1 IN STRESS PERIOD    1
  ---------------------------------------------------------------------------

            1           2           3           4           5           6           7           8           9          10
 ........................................................................................................................
   1   6.0135-154 -8.5067-227  6.0135-154  1.0721-311  6.0135-154  6.0135-154  6.0136-154  6.0135-154  6.0135-154  6.0135-154
   2   3.1769-153  6.0135-154  6.0135-154  6.0135-154  6.0135-154  6.0135-154  1.0402-317  2.1220-312  2.1220-314   0.000    
   3    0.000       0.000       0.000       0.000       0.000       0.000       0.000       0.000       0.000       0.000    
   4    0.000       0.000       0.000       0.000       0.000       0.000       0.000       0.000       0.000       0.000    
   5    0.000       0.000       0.000       0.000       0.000       0.000       0.000       0.000       0.000       0.000    
   6    0.000       0.000       0.000       0.000       0.000       0.000       0.000       0.000      1.0721-311  3.9525-323
   7    0.000      2.4703-323  4.9407-324   0.000      4.9407-322  3.9525-323  4.9407-324   0.000       0.000       0.000    
   8    0.000       0.000       0.000       0.000       0.000       0.000       0.000       0.000       0.000       0.000    
   9    0.000       0.000       0.000       0.000       0.000       0.000       0.000       0.000       0.000       0.000    
  10    0.000       0.000       0.000       0.000       0.000       0.000       0.000       0.000       0.000       0.000    
1
  HEAD IN LAYER   3 AT END OF TIME STEP   1 IN STRESS PERIOD    1
  ---------------------------------------------------------------------------

            1           2           3           4           5           6           7           8           9          10
 ........................................................................................................................
   1    0.000       0.000       0.000      6.0135-154  6.0135-154 -8.5088-227  6.0135-154  1.0721-311  6.0138-154  6.0135-154
   2   2.2899E+15  6.0135-154  6.0135-154  6.0135-154  2.1164E+88  6.0135-154  6.0135-154  6.0135-154  6.0135-154  6.0135-154
   3   1.0402-317  2.1220-314  2.1220-314   0.000       0.000       0.000       0.000      1.9763-323   0.000      1.9763-323
   4   4.9407-324   0.000      4.9407-324  1.9763-323  4.9407-324   0.000       0.000       0.000       0.000       0.000    
   5    0.000       0.000       0.000       0.000       0.000       0.000       0.000       0.000       0.000       0.000    
   6    0.000       0.000       0.000       0.000       0.000       0.000       0.000       0.000       0.000       0.000    
   7    0.000       0.000       0.000       0.000       0.000       0.000       0.000       0.000       0.000       0.000    
   8    0.000       0.000       0.000       0.000       0.000       0.000       0.000       0.000       0.000       0.000    
   9    0.000       0.000       0.000       0.000       0.000       0.000       0.000       0.000       0.000       0.000    
  10    0.000       0.000       0.000       0.000       0.000       0.000       0.000       0.000       0.000       0.000    
1
  HEAD IN LAYER   4 AT END OF TIME STEP   1 IN STRESS PERIOD    1
  ---------------------------------------------------------------------------

            1           2           3           4           5           6           7           8           9          10
 ........................................................................................................................
   1    0.000       0.000       0.000       0.000       0.000       0.000       0.000      6.0135-154  6.0135-154 -8.5108-227
   2   6.0135-154  1.0721-311  6.0135-154  6.0135-154  2.2899E+15  6.0135-154  6.0135-154  6.0135-154  2.1164E+88  6.0135-154
   3   6.0135-154  6.0135-154  6.0135-154  6.0135-154  1.0402-317  2.1220-314  2.1220-314   0.000      1.0721-311   0.000    
   4    0.000       0.000       0.000       0.000       0.000       0.000       0.000       0.000       0.000       0.000    
   5    0.000       0.000       0.000       0.000       0.000       0.000       0.000       0.000       0.000       0.000    
   6    0.000       0.000       0.000       0.000       0.000       0.000       0.000       0.000       0.000       0.000    
   7    0.000       0.000       0.000       0.000       0.000       0.000       0.000       0.000       0.000       0.000    
   8    0.000       0.000       0.000       0.000       0.000       0.000       0.000       0.000       0.000       0.000    
   9    0.000       0.000       0.000       0.000       0.000       0.000       0.000       0.000       0.000       0.000    
  10    0.000       0.000       0.000       0.000       0.000       0.000       0.000       0.000       0.000       0.000    
1
  HEAD IN LAYER   5 AT END OF TIME STEP   1 IN STRESS PERIOD    1
  ---------------------------------------------------------------------------

            1           2           3           4           5           6           7           8           9          10
 ........................................................................................................................
   1    0.000       0.000       0.000       0.000       0.000       0.000       0.000       0.000       0.000       0.000    
   2    0.000      6.0135-154  6.0135-154 -2.5017-265  6.0135-154  1.0721-311   1.000       0.000       0.000       0.000    
   3    0.000       0.000       0.000       0.000       0.000       2.000       1.000       0.000       0.000       0.000    
   4    0.000       0.000       0.000       0.000       0.000       2.000       1.000       0.000       0.000       0.000    
   5    0.000       0.000       0.000       0.000       0.000       2.000       1.000       0.000       0.000       0.000    
   6    0.000       0.000       0.000       0.000       0.000       2.000       1.000       0.000       0.000       0.000    
   7    0.000       0.000       0.000       0.000       0.000       2.000       1.000       0.000       0.000       0.000    
   8    0.000       0.000       0.000       0.000       0.000       2.000       1.000       0.000       0.000       0.000    
   9    0.000       0.000       0.000       0.000       0.000       2.000       1.000       0.000       0.000       0.000    
  10    0.000       0.000       0.000       0.000       0.000       2.000       1.000       0.000       0.000       0.000    
1
  HEAD IN LAYER   6 AT END OF TIME STEP   1 IN STRESS PERIOD    1
  ---------------------------------------------------------------------------

            1           2           3           4           5           6           7           8           9          10
 ........................................................................................................................
   1    0.000       0.000       0.000       0.000       0.000       2.000       1.000       0.000       0.000       0.000    
   2    0.000       0.000       0.000       0.000       0.000       2.000      6.0135-154 -8.5149-227  6.0135-154  1.0721-311
   3   6.0135-154  6.0135-154  6.0136-154  6.0135-154  6.0135-154  6.0135-154  3.1769-153  6.0135-154  6.0135-154  6.0135-154
   4   6.0135-154  6.0135-154  1.0402-317  2.1220-312  2.1220-314   0.000       0.000       0.000       0.000       0.000    
   5    0.000       0.000       0.000       0.000       0.000       0.000       0.000       0.000       0.000       0.000    
   6    0.000       0.000       0.000       0.000       0.000       0.000       0.000       0.000       0.000       0.000    
   7    0.000       0.000       0.000       0.000       0.000       0.000       0.000       0.000       0.000       0.000    
   8    0.000       0.000       0.000       0.000      1.0721-311  3.9525-323   0.000      2.4703-323  4.9407-324   0.000    
   9   4.9407-322  3.9525-323  4.9407-324   0.000       0.000       0.000       0.000       0.000       0.000       0.000    
  10    0.000       0.000       0.000       0.000       0.000       0.000       0.000       0.000       0.000       0.000    
1
  HEAD IN LAYER   7 AT END OF TIME STEP   1 IN STRESS PERIOD    1
  ---------------------------------------------------------------------------

            1           2           3           4           5           6           7           8           9          10
 ........................................................................................................................
   1    0.000       0.000       0.000       0.000       0.000       0.000       0.000       0.000       0.000       0.000    
   2    0.000       0.000       0.000       0.000       0.000       0.000       0.000       0.000       0.000      6.0135-154
   3   6.0135-154 -8.5170-227  6.0135-154  1.0721-311  6.0138-154  6.0135-154  2.2899E+15  6.0135-154  6.0135-154  6.0135-154
   4   2.1164E+88  6.0135-154  6.0135-154  6.0135-154  6.0135-154  6.0135-154  1.0402-317  2.1220-314  2.1220-314   0.000    
   5   1.0721-311   0.000       0.000       0.000       0.000       0.000       0.000       0.000       0.000       0.000    
   6    0.000       0.000       0.000       0.000       0.000       0.000       0.000       0.000       0.000       0.000    
   7    0.000       0.000       0.000       0.000       0.000       0.000       0.000       0.000       0.000       0.000    
   8    0.000       0.000       0.000       0.000       0.000       0.000       0.000       0.000       0.000       0.000    
   9    0.000       0.000       0.000       0.000       0.000       0.000       0.000       0.000       0.000       0.000    
  10    0.000       0.000       0.000       0.000       0.000       0.000       0.000       0.000       0.000       0.000    
1
  HEAD IN LAYER   8 AT END OF TIME STEP   1 IN STRESS PERIOD    1
  ---------------------------------------------------------------------------

            1           2           3           4           5           6           7           8           9          10
 ........................................................................................................................
   1    0.000       0.000       0.000       0.000       0.000       0.000       0.000       0.000       0.000       0.000    
   2    0.000       0.000       0.000       0.000       0.000       0.000       0.000       0.000       0.000       0.000    
   3    0.000       0.000       0.000      6.0135-154  6.0135-154 -8.5191-227  6.0135-154  1.0721-311  6.0135-154  6.0135-154
   4   2.2899E+15  6.0135-154  6.0135-154  6.0135-154  2.1164E+88  6.0267-154  6.0135-154  6.0135-154  6.0135-154  6.0135-154
   5   1.0402-317  9.7612-312  2.1220-314   0.000       0.000       0.000      1.0721-311  1.9763-323   0.000      2.4703-323
   6   4.9407-324   0.000      2.2727-321  1.9763-323  4.9407-324   0.000       0.000       0.000       0.000       0.000    
   7    0.000       0.000       0.000       0.000       0.000       0.000       0.000       0.000       0.000       0.000    
   8    0.000       0.000       0.000       0.000       0.000       0.000       0.000       0.000       0.000       0.000    
   9    0.000       0.000       0.000       0.000       0.000       0.000       0.000       0.000       0.000       0.000    
  10    0.000       0.000       0.000       0.000       0.000       0.000       0.000       0.000       0.000       0.000    
1
  HEAD IN LAYER   9 AT END OF TIME STEP   1 IN STRESS PERIOD    1
  ---------------------------------------------------------------------------

            1           2           3           4           5           6           7           8           9          10
 ........................................................................................................................
   1    0.000       0.000       0.000       0.000       0.000       0.000       0.000       0.000       0.000       0.000    
   2    0.000       0.000       0.000       0.000       0.000       0.000       0.000       0.000       0.000       0.000    
   3    0.000       0.000       0.000       0.000       0.000       0.000       0.000      6.0135-154  6.0135-154 -8.5211-227
   4   6.0135-154  1.0721-311  6.0135-154  6.0135-154  2.2899E+15  6.0135-154  6.0135-154  6.0135-154  3.1769-153  6.0135-154
   5   6.0135-154  6.0135-154  6.0135-154  6.0135-154  1.0402-317  3.8196-312  2.1220-314   0.000       0.000       0.000    
   6    0.000       0.000       0.000       0.000       0.000       0.000       0.000       0.000       0.000       0.000    
   7    0.000       0.000       0.000       0.000       0.000       0.000       0.000       0.000       0.000       0.000    
   8    0.000       0.000       0.000       0.000       0.000       0.000       0.000       0.000       0.000       0.000    
   9    0.000       0.000       0.000       0.000       0.000       0.000      1.0721-311  3.9525-323   0.000      2.4703-323
  10   4.9407-324   0.000      8.8932-322  3.9525-323  4.9407-324   0.000       0.000       0.000       0.000       0.000    
1
  HEAD IN LAYER  10 AT END OF TIME STEP   1 IN STRESS PERIOD    1
  ---------------------------------------------------------------------------

            1           2           3           4           5           6           7           8           9          10
 ........................................................................................................................
   1    0.000       0.000       0.000       0.000       0.000       0.000       0.000       0.000       0.000       0.000    
   2    0.000       0.000       0.000       0.000       0.000       0.000       0.000       0.000       0.000       0.000    
   3    0.000       0.000       0.000       0.000       0.000       0.000       0.000       0.000       0.000       0.000    
   4    0.000      6.0135-154  6.0135-154  6.0135-154  6.0135-154  6.0135-154  6.0135-154  6.0135-154  6.0135-154  6.0135-154
   5   6.0135-154  6.0135-154  6.0135-154  6.0135-154  6.0135-154  6.0135-154  6.0135-154  6.0135-154  6.0135-154  6.0135-154
   6   6.0135-154  6.0135-154  6.0135-154  6.0135-154  6.0135-154  6.0135-154  6.0135-154  6.0135-154  6.0135-154  6.0135-154
   7   6.0135-154  6.0135-154  6.0135-154  6.0135-154  6.0135-154  3.8692-265  1.0721-311  1.0721-311  1.0721-311  1.0721-311
   8   1.0721-311  1.0721-311  1.0721-311  1.0721-311  1.0721-311  1.9763-323   0.000      2.4703-323  4.9407-324   0.000    
   9   4.9901-322  1.9763-323  4.9407-324  1.0721-311  1.9763-323   0.000      2.4703-323  4.9407-324   0.000      2.2727-321
  10   1.9763-323  4.9407-324  1.0721-311  1.9763-323   0.000      2.4703-323  4.9407-324   0.000      2.2727-321  1.9763-323

 HEAD WILL BE SAVED ON UNIT 1012 AT END OF TIME STEP    1, STRESS PERIOD    1


  VOLUME BUDGET FOR ENTIRE MODEL AT END OF TIME STEP    1, STRESS PERIOD   1
  ---------------------------------------------------------------------------------------------------

     CUMULATIVE VOLUME      L**3       RATES FOR THIS TIME STEP      L**3/T          PACKAGE NAME    
     ------------------                 ------------------------                     ----------------

           IN:                                      IN:
           ---                                      ---
                 CHD =           2.2222                   CHD =           2.2222     CHD-1           

            TOTAL IN =           2.2222              TOTAL IN =           2.2222

          OUT:                                     OUT:
          ----                                     ----
                 CHD =           2.2222                   CHD =           2.2222     CHD-1           

           TOTAL OUT =           2.2222             TOTAL OUT =           2.2222

            IN - OUT =       1.3445E-09              IN - OUT =       1.3445E-09

 PERCENT DISCREPANCY =           0.00     PERCENT DISCREPANCY =           0.00




         TIME SUMMARY AT END OF TIME STEP    1 IN STRESS PERIOD    1
                    SECONDS     MINUTES      HOURS       DAYS        YEARS
                    -----------------------------------------------------------
   TIME STEP LENGTH  86400.      1440.0      24.000      1.0000     2.73785E-03
 STRESS PERIOD TIME  86400.      1440.0      24.000      1.0000     2.73785E-03
         TOTAL TIME  86400.      1440.0      24.000      1.0000     2.73785E-03
