                                   MODFLOW 6
                U.S. GEOLOGICAL SURVEY MODULAR HYDROLOGIC MODEL
                            VERSION 6.0.5 03/31/2019
                               ***DEVELOP MODE***

   MODFLOW 6 compiled Nov 27 2019 14:52:26 with IFORT compiler (ver. 18.0.5)

This software is preliminary or provisional and is subject to 
revision. It is being provided to meet the need for timely best 
science. The software has not received final approval by the U.S. 
Geological Survey (USGS). No warranty, expressed or implied, is made 
by the USGS or the U.S. Government as to the functionality of the 
software and related material nor shall the fact of release 
constitute any such warranty. The software is provided on the 
condition that neither the USGS nor the U.S. Government shall be held 
liable for any damages resulting from the authorized or unauthorized 
use of the software.


System command used to initiate simulation:
d:\checkouts\modflow6-mjr\bin\mf6.exe

MODFLOW was compiled using uniform precision.
Real Variables
  PRECISION: 15
  KIND: 8
  TINY (smallest non-zero value):    2.225074-308
  HUGE (largest value):    1.797693+308
Integer Variables
  KIND: 4
  HUGE (largest value): 2147483647
  BIT_SIZE: 32
 

 OPENED mfsim.nam
 FILE TYPE:NAM   UNIT 1001   STATUS:OLD                 
 FORMAT:FORMATTED              ACCESS:SEQUENTIAL          
 ACTION:READ                


 READING SIMULATION OPTIONS
    A SUMMARY OF SIMULATION MEMORY INFORMATION WILL BE WRITTEN.
 END OF SIMULATION OPTIONS

 READING SIMULATION TIMING

 OPENED mfsim.tdis
 FILE TYPE:TDIS   UNIT 1002   STATUS:OLD                 
 FORMAT:FORMATTED              ACCESS:SEQUENTIAL          
 ACTION:READ                


 TDIS -- TEMPORAL DISCRETIZATION PACKAGE,
 VERSION 1 : 11/13/2014 - INPUT READ FROM UNIT 1002
 # TDIS input file
 PROCESSING TDIS OPTIONS
    SIMULATION TIME UNIT IS DAYS
 END OF TDIS OPTIONS
 PROCESSING TDIS DIMENSIONS
    5 STRESS PERIOD(S) IN SIMULATION
 END OF TDIS DIMENSIONS
 PROCESSING TDIS PERIODDATA


 STRESS PERIOD     LENGTH       TIME STEPS     MULTIPLIER FOR DELT
 ----------------------------------------------------------------------------
        1         100.0000          5                    1.000
        2         100.0000         10                    1.000
        3         100.0000          5                    1.000
        4         100.0000         10                    1.000
        5         100.0000          5                    1.000
 END OF TDIS PERIODDATA
 END OF SIMULATION TIMING

 READING SIMULATION MODELS
    GWF6 model TESTJE will be created as model 1
 END OF SIMULATION MODELS

 READING SIMULATION EXCHANGES
 END OF SIMULATION EXCHANGES

 READING SOLUTIONGROUP

 Creating solution: SLN_1           

 OPENED solution.ims
 FILE TYPE:IMS   UNIT 1011   STATUS:OLD                 
 FORMAT:FORMATTED              ACCESS:SEQUENTIAL          
 ACTION:READ                

 END OF SIMULATION SOLUTIONGROUP

 IMS -- ITERATIVE MODEL SOLUTION PACKAGE, VERSION 6, 4/28/2017
         INPUT READ FROM UNIT 1011

 PROCESSING IMS OPTIONS
 END OF IMS OPTIONS

 PROCESSING IMS NONLINEAR
 END OF IMS NONLINEAR DATA
 ***UNDER-RELAXATION WILL NOT BE USED***
 
 ***IMS LINEAR SOLVER WILL BE USED***

 IMSLINEAR -- UNSTRUCTURED LINEAR SOLUTION PACKAGE, VERSION 8, 04/28/2017

 PROCESSING LINEAR DATA
 END OF LINEAR DATA
 
 OUTER ITERATION CONVERGENCE CRITERION     (HCLOSE) =    0.100000E-07
 OUTER ITERATION BOUNDARY FLOW RESIDUAL (RCLOSEBND) =    0.100000E+00
 MAXIMUM NUMBER OF OUTER ITERATIONS        (MXITER) =      1000
 SOLVER PRINTOUT INDEX                     (IPRIMS) =         2
 NONLINEAR ITERATION METHOD            (NONLINMETH) =         0
 LINEAR SOLUTION METHOD                   (LINMETH) =         1

       SOLUTION BY THE        CONJUGATE-GRADIENT       METHOD
 ------------------------------------------------------------------
 MAXIMUM OF   1000 CALLS OF SOLUTION ROUTINE
 MAXIMUM OF   1000 INTERNAL ITERATIONS PER CALL TO SOLUTION ROUTINE
 LINEAR ACCELERATION METHOD            = CG        
 MATRIX PRECONDITIONING TYPE           = INCOMPLETE LU       
 MATRIX SCALING APPROACH               = NO SCALING          
 MATRIX REORDERING APPROACH            = ORIGINAL ORDERING        
 NUMBER OF ORTHOGONALIZATIONS          =        0
 HEAD CHANGE CRITERION FOR CLOSURE     =    0.10000E-07
 RESIDUAL CHANGE CRITERION FOR CLOSURE =    0.10000E-01
 RESIDUAL CONVERGENCE OPTION           =        0
 RESIDUAL CONVERGENCE NORM             = INFINITY NORM   
 RELAXATION FACTOR                     =    0.00000E+00



1
                            STRESS PERIOD NO.    1, LENGTH =   100.0000    
                            -----------------------------------------------

                              NUMBER OF TIME STEPS =     5

                               MULTIPLIER FOR DELT =     1.000

                            INITIAL TIME STEP SIZE =   20.00000    


 OUTER ITERATION SUMMARY
 ---------------------------------------------------------------------------------------
                       OUTER     INNER         MAXIMUM                    MAXIMUM CHANGE
                   ITERATION ITERATION          CHANGE                    MODEL-(CELLID)
 ---------------------------------------------------------------------------------------
 Linear Solver             1        15     1.88889                         1_GWF-(1,9,9)
 Under-relaxation          1               1.88889                         1_GWF-(1,9,9)
 Linear Solver             2         1   -5.306586E-10                     1_GWF-(1,4,5)

 2 CALLS TO NUMERICAL SOLUTION IN TIME STEP 1 STRESS PERIOD 1
 16 TOTAL ITERATIONS

 INNER ITERATION SUMMARY
 --------------------------------------------------------------------------------------------------------------------------------
     TOTAL      OUTER     INNER                    MAXIMUM CHANGE        MAXIMUM                  MAXIMUM RESIDUAL        MAXIMUM
 ITERATION  ITERATION ITERATION                    MODEL-(CELLID)         CHANGE                    MODEL-(CELLID)       RESIDUAL
 --------------------------------------------------------------------------------------------------------------------------------
          1         1         1                    1_GWF-(1,10,9)   1.514521                         1_GWF-(1,2,8)  -1.278042    
          2         1         2                    1_GWF-(1,10,8)   1.103463                         1_GWF-(1,2,8)   1.181624    
          3         1         3                     1_GWF-(1,7,6)  0.7727229                        1_GWF-(1,10,7)  0.4090642    
          4         1         4                     1_GWF-(1,5,5)  0.1301381                         1_GWF-(1,2,7)  0.1010685    
          5         1         5                     1_GWF-(1,7,3)  0.4596230E-01                     1_GWF-(1,2,7) -0.3325475E-01
          6         1         6                     1_GWF-(1,1,4)  0.9769371E-02                     1_GWF-(1,3,6) -0.1041865E-01
          7         1         7                     1_GWF-(1,9,4) -0.6679768E-02                    1_GWF-(1,10,6)  0.5062313E-02
          8         1         8                    1_GWF-(1,10,6) -0.1979433E-02                     1_GWF-(1,1,8) -0.9730432E-03
          9         1         9                     1_GWF-(1,1,8)  0.4861237E-03                     1_GWF-(1,9,9)  0.3531264E-03
         10         1        10                     1_GWF-(1,2,7)  0.7021772E-04                     1_GWF-(1,9,9) -0.4677235E-04
         11         1        11                     1_GWF-(1,1,5) -0.9766284E-05                     1_GWF-(1,9,6)  0.8047279E-05
         12         1        12                     1_GWF-(1,5,5)  0.2643399E-05                     1_GWF-(1,9,5)  0.2411981E-05
         13         1        13                     1_GWF-(1,9,5) -0.5936246E-06                     1_GWF-(1,8,8) -0.4157412E-06
         14         1        14                    1_GWF-(1,10,8) -0.1094934E-06                     1_GWF-(1,8,7) -0.5030614E-07
         15         1        15                    1_GWF-(1,10,9) -0.9324466E-08                     1_GWF-(1,4,5)  0.8169092E-08
         16         2         1                     1_GWF-(1,4,5) -0.5306586E-09                     1_GWF-(1,4,5)  0.5515633E-08


 OUTER ITERATION SUMMARY
 ---------------------------------------------------------------------------------------
                       OUTER     INNER         MAXIMUM                    MAXIMUM CHANGE
                   ITERATION ITERATION          CHANGE                    MODEL-(CELLID)
 ---------------------------------------------------------------------------------------
 Linear Solver             1         1    2.229010E-10                     1_GWF-(1,1,4)

 1 CALLS TO NUMERICAL SOLUTION IN TIME STEP 2 STRESS PERIOD 1
 1 TOTAL ITERATIONS

 INNER ITERATION SUMMARY
 --------------------------------------------------------------------------------------------------------------------------------
     TOTAL      OUTER     INNER                    MAXIMUM CHANGE        MAXIMUM                  MAXIMUM RESIDUAL        MAXIMUM
 ITERATION  ITERATION ITERATION                    MODEL-(CELLID)         CHANGE                    MODEL-(CELLID)       RESIDUAL
 --------------------------------------------------------------------------------------------------------------------------------
          1         1         1                     1_GWF-(1,1,4)  0.2229011E-09                     1_GWF-(1,4,5)  0.4458081E-08


 OUTER ITERATION SUMMARY
 ---------------------------------------------------------------------------------------
                       OUTER     INNER         MAXIMUM                    MAXIMUM CHANGE
                   ITERATION ITERATION          CHANGE                    MODEL-(CELLID)
 ---------------------------------------------------------------------------------------
 Linear Solver             1         1    1.392635E-10                     1_GWF-(1,1,3)

 1 CALLS TO NUMERICAL SOLUTION IN TIME STEP 3 STRESS PERIOD 1
 1 TOTAL ITERATIONS

 INNER ITERATION SUMMARY
 --------------------------------------------------------------------------------------------------------------------------------
     TOTAL      OUTER     INNER                    MAXIMUM CHANGE        MAXIMUM                  MAXIMUM RESIDUAL        MAXIMUM
 ITERATION  ITERATION ITERATION                    MODEL-(CELLID)         CHANGE                    MODEL-(CELLID)       RESIDUAL
 --------------------------------------------------------------------------------------------------------------------------------
          1         1         1                     1_GWF-(1,1,3)  0.1392635E-09                     1_GWF-(1,4,5)  0.3834973E-08


 OUTER ITERATION SUMMARY
 ---------------------------------------------------------------------------------------
                       OUTER     INNER         MAXIMUM                    MAXIMUM CHANGE
                   ITERATION ITERATION          CHANGE                    MODEL-(CELLID)
 ---------------------------------------------------------------------------------------
 Linear Solver             1         1    9.906320E-11                     1_GWF-(1,1,3)

 1 CALLS TO NUMERICAL SOLUTION IN TIME STEP 4 STRESS PERIOD 1
 1 TOTAL ITERATIONS

 INNER ITERATION SUMMARY
 --------------------------------------------------------------------------------------------------------------------------------
     TOTAL      OUTER     INNER                    MAXIMUM CHANGE        MAXIMUM                  MAXIMUM RESIDUAL        MAXIMUM
 ITERATION  ITERATION ITERATION                    MODEL-(CELLID)         CHANGE                    MODEL-(CELLID)       RESIDUAL
 --------------------------------------------------------------------------------------------------------------------------------
          1         1         1                     1_GWF-(1,1,3)  0.9906323E-10                     1_GWF-(1,4,5)  0.3410293E-08


 OUTER ITERATION SUMMARY
 ---------------------------------------------------------------------------------------
                       OUTER     INNER         MAXIMUM                    MAXIMUM CHANGE
                   ITERATION ITERATION          CHANGE                    MODEL-(CELLID)
 ---------------------------------------------------------------------------------------
 Linear Solver             1         1    7.553358E-11                     1_GWF-(1,1,3)

 1 CALLS TO NUMERICAL SOLUTION IN TIME STEP 5 STRESS PERIOD 1
 1 TOTAL ITERATIONS

 INNER ITERATION SUMMARY
 --------------------------------------------------------------------------------------------------------------------------------
     TOTAL      OUTER     INNER                    MAXIMUM CHANGE        MAXIMUM                  MAXIMUM RESIDUAL        MAXIMUM
 ITERATION  ITERATION ITERATION                    MODEL-(CELLID)         CHANGE                    MODEL-(CELLID)       RESIDUAL
 --------------------------------------------------------------------------------------------------------------------------------
          1         1         1                     1_GWF-(1,1,3)  0.7553359E-10                     1_GWF-(1,4,5)  0.3096648E-08
1
                            STRESS PERIOD NO.    2, LENGTH =   100.0000    
                            -----------------------------------------------

                              NUMBER OF TIME STEPS =    10

                               MULTIPLIER FOR DELT =     1.000

                            INITIAL TIME STEP SIZE =   10.00000    


 OUTER ITERATION SUMMARY
 ---------------------------------------------------------------------------------------
                       OUTER     INNER         MAXIMUM                    MAXIMUM CHANGE
                   ITERATION ITERATION          CHANGE                    MODEL-(CELLID)
 ---------------------------------------------------------------------------------------
 Linear Solver             1        15    -2.76802                         1_GWF-(1,5,5)
 Under-relaxation          1              -2.76802                         1_GWF-(1,5,5)
 Linear Solver             2         1   -1.367444E-10                     1_GWF-(1,4,6)

 2 CALLS TO NUMERICAL SOLUTION IN TIME STEP 1 STRESS PERIOD 2
 16 TOTAL ITERATIONS

 INNER ITERATION SUMMARY
 --------------------------------------------------------------------------------------------------------------------------------
     TOTAL      OUTER     INNER                    MAXIMUM CHANGE        MAXIMUM                  MAXIMUM RESIDUAL        MAXIMUM
 ITERATION  ITERATION ITERATION                    MODEL-(CELLID)         CHANGE                    MODEL-(CELLID)       RESIDUAL
 --------------------------------------------------------------------------------------------------------------------------------
          1         1         1                     1_GWF-(1,5,5)  -2.063053                         1_GWF-(1,4,6)   1.221906    
          2         1         2                     1_GWF-(1,4,6) -0.8405423                         1_GWF-(1,6,4)  -1.063031    
          3         1         3                     1_GWF-(1,3,7) -0.3814530                         1_GWF-(1,7,3) -0.3728537    
          4         1         4                     1_GWF-(1,1,8) -0.1435676                         1_GWF-(1,3,7)  0.9368476E-01
          5         1         5                    1_GWF-(1,10,6) -0.2788843E-01                     1_GWF-(1,2,7) -0.2364424E-01
          6         1         6                    1_GWF-(1,10,7) -0.8344894E-02                     1_GWF-(1,3,7) -0.7285559E-02
          7         1         7                     1_GWF-(1,2,5)  0.3428671E-02                     1_GWF-(1,7,3)  0.3370645E-02
          8         1         8                    1_GWF-(1,10,3) -0.1211894E-02                     1_GWF-(1,8,2)  0.1155304E-02
          9         1         9                     1_GWF-(1,9,4) -0.2666931E-03                     1_GWF-(1,2,8) -0.1809010E-03
         10         1        10                     1_GWF-(1,6,8)  0.4067006E-04                     1_GWF-(1,2,8)  0.3405755E-04
         11         1        11                     1_GWF-(1,6,7)  0.7662557E-05                     1_GWF-(1,8,2)  0.9608657E-05
         12         1        12                     1_GWF-(1,5,7)  0.1975301E-05                     1_GWF-(1,3,7) -0.2400634E-05
         13         1        13                     1_GWF-(1,1,4) -0.5452866E-06                     1_GWF-(1,6,6)  0.3821621E-06
         14         1        14                     1_GWF-(1,2,3) -0.9767181E-07                     1_GWF-(1,4,7) -0.6138971E-07
         15         1        15                     1_GWF-(1,4,7)  0.6528793E-08                     1_GWF-(1,4,6)  0.6381679E-08
         16         2         1                     1_GWF-(1,4,6) -0.1367444E-09                     1_GWF-(1,4,6)  0.5147605E-08


 OUTER ITERATION SUMMARY
 ---------------------------------------------------------------------------------------
                       OUTER     INNER         MAXIMUM                    MAXIMUM CHANGE
                   ITERATION ITERATION          CHANGE                    MODEL-(CELLID)
 ---------------------------------------------------------------------------------------
 Linear Solver             1         1   -8.206774E-11                     1_GWF-(1,3,4)

 1 CALLS TO NUMERICAL SOLUTION IN TIME STEP 2 STRESS PERIOD 2
 1 TOTAL ITERATIONS

 INNER ITERATION SUMMARY
 --------------------------------------------------------------------------------------------------------------------------------
     TOTAL      OUTER     INNER                    MAXIMUM CHANGE        MAXIMUM                  MAXIMUM RESIDUAL        MAXIMUM
 ITERATION  ITERATION ITERATION                    MODEL-(CELLID)         CHANGE                    MODEL-(CELLID)       RESIDUAL
 --------------------------------------------------------------------------------------------------------------------------------
          1         1         1                     1_GWF-(1,3,4) -0.8206776E-10                     1_GWF-(1,4,6)  0.4423289E-08


 OUTER ITERATION SUMMARY
 ---------------------------------------------------------------------------------------
                       OUTER     INNER         MAXIMUM                    MAXIMUM CHANGE
                   ITERATION ITERATION          CHANGE                    MODEL-(CELLID)
 ---------------------------------------------------------------------------------------
 Linear Solver             1         1   -5.729400E-11                     1_GWF-(1,3,4)

 1 CALLS TO NUMERICAL SOLUTION IN TIME STEP 3 STRESS PERIOD 2
 1 TOTAL ITERATIONS

 INNER ITERATION SUMMARY
 --------------------------------------------------------------------------------------------------------------------------------
     TOTAL      OUTER     INNER                    MAXIMUM CHANGE        MAXIMUM                  MAXIMUM RESIDUAL        MAXIMUM
 ITERATION  ITERATION ITERATION                    MODEL-(CELLID)         CHANGE                    MODEL-(CELLID)       RESIDUAL
 --------------------------------------------------------------------------------------------------------------------------------
          1         1         1                     1_GWF-(1,3,4) -0.5729399E-10                     1_GWF-(1,4,6)  0.3930510E-08


 OUTER ITERATION SUMMARY
 ---------------------------------------------------------------------------------------
                       OUTER     INNER         MAXIMUM                    MAXIMUM CHANGE
                   ITERATION ITERATION          CHANGE                    MODEL-(CELLID)
 ---------------------------------------------------------------------------------------
 Linear Solver             1         1   -4.314465E-11                     1_GWF-(1,3,4)

 1 CALLS TO NUMERICAL SOLUTION IN TIME STEP 4 STRESS PERIOD 2
 1 TOTAL ITERATIONS

 INNER ITERATION SUMMARY
 --------------------------------------------------------------------------------------------------------------------------------
     TOTAL      OUTER     INNER                    MAXIMUM CHANGE        MAXIMUM                  MAXIMUM RESIDUAL        MAXIMUM
 ITERATION  ITERATION ITERATION                    MODEL-(CELLID)         CHANGE                    MODEL-(CELLID)       RESIDUAL
 --------------------------------------------------------------------------------------------------------------------------------
          1         1         1                     1_GWF-(1,3,4) -0.4314463E-10                     1_GWF-(1,4,6)  0.3566910E-08


 OUTER ITERATION SUMMARY
 ---------------------------------------------------------------------------------------
                       OUTER     INNER         MAXIMUM                    MAXIMUM CHANGE
                   ITERATION ITERATION          CHANGE                    MODEL-(CELLID)
 ---------------------------------------------------------------------------------------
 Linear Solver             1         1   -3.410838E-11                     1_GWF-(1,3,4)

 1 CALLS TO NUMERICAL SOLUTION IN TIME STEP 5 STRESS PERIOD 2
 1 TOTAL ITERATIONS

 INNER ITERATION SUMMARY
 --------------------------------------------------------------------------------------------------------------------------------
     TOTAL      OUTER     INNER                    MAXIMUM CHANGE        MAXIMUM                  MAXIMUM RESIDUAL        MAXIMUM
 ITERATION  ITERATION ITERATION                    MODEL-(CELLID)         CHANGE                    MODEL-(CELLID)       RESIDUAL
 --------------------------------------------------------------------------------------------------------------------------------
          1         1         1                     1_GWF-(1,3,4) -0.3410839E-10                     1_GWF-(1,4,6)  0.3284287E-08


 OUTER ITERATION SUMMARY
 ---------------------------------------------------------------------------------------
                       OUTER     INNER         MAXIMUM                    MAXIMUM CHANGE
                   ITERATION ITERATION          CHANGE                    MODEL-(CELLID)
 ---------------------------------------------------------------------------------------
 Linear Solver             1         1   -2.789918E-11                     1_GWF-(1,3,4)

 1 CALLS TO NUMERICAL SOLUTION IN TIME STEP 6 STRESS PERIOD 2
 1 TOTAL ITERATIONS

 INNER ITERATION SUMMARY
 --------------------------------------------------------------------------------------------------------------------------------
     TOTAL      OUTER     INNER                    MAXIMUM CHANGE        MAXIMUM                  MAXIMUM RESIDUAL        MAXIMUM
 ITERATION  ITERATION ITERATION                    MODEL-(CELLID)         CHANGE                    MODEL-(CELLID)       RESIDUAL
 --------------------------------------------------------------------------------------------------------------------------------
          1         1         1                     1_GWF-(1,3,4) -0.2789917E-10                     1_GWF-(1,4,6)  0.3056450E-08


 OUTER ITERATION SUMMARY
 ---------------------------------------------------------------------------------------
                       OUTER     INNER         MAXIMUM                    MAXIMUM CHANGE
                   ITERATION ITERATION          CHANGE                    MODEL-(CELLID)
 ---------------------------------------------------------------------------------------
 Linear Solver             1         1   -2.340450E-11                     1_GWF-(1,3,4)

 1 CALLS TO NUMERICAL SOLUTION IN TIME STEP 7 STRESS PERIOD 2
 1 TOTAL ITERATIONS

 INNER ITERATION SUMMARY
 --------------------------------------------------------------------------------------------------------------------------------
     TOTAL      OUTER     INNER                    MAXIMUM CHANGE        MAXIMUM                  MAXIMUM RESIDUAL        MAXIMUM
 ITERATION  ITERATION ITERATION                    MODEL-(CELLID)         CHANGE                    MODEL-(CELLID)       RESIDUAL
 --------------------------------------------------------------------------------------------------------------------------------
          1         1         1                     1_GWF-(1,3,4) -0.2340449E-10                     1_GWF-(1,4,6)  0.2867745E-08


 OUTER ITERATION SUMMARY
 ---------------------------------------------------------------------------------------
                       OUTER     INNER         MAXIMUM                    MAXIMUM CHANGE
                   ITERATION ITERATION          CHANGE                    MODEL-(CELLID)
 ---------------------------------------------------------------------------------------
 Linear Solver             1         1   -2.002121E-11                     1_GWF-(1,3,4)

 1 CALLS TO NUMERICAL SOLUTION IN TIME STEP 8 STRESS PERIOD 2
 1 TOTAL ITERATIONS

 INNER ITERATION SUMMARY
 --------------------------------------------------------------------------------------------------------------------------------
     TOTAL      OUTER     INNER                    MAXIMUM CHANGE        MAXIMUM                  MAXIMUM RESIDUAL        MAXIMUM
 ITERATION  ITERATION ITERATION                    MODEL-(CELLID)         CHANGE                    MODEL-(CELLID)       RESIDUAL
 --------------------------------------------------------------------------------------------------------------------------------
          1         1         1                     1_GWF-(1,3,4) -0.2002122E-10                     1_GWF-(1,4,6)  0.2708150E-08


 OUTER ITERATION SUMMARY
 ---------------------------------------------------------------------------------------
                       OUTER     INNER         MAXIMUM                    MAXIMUM CHANGE
                   ITERATION ITERATION          CHANGE                    MODEL-(CELLID)
 ---------------------------------------------------------------------------------------
 Linear Solver             1         1   -1.739575E-11                     1_GWF-(1,3,4)

 1 CALLS TO NUMERICAL SOLUTION IN TIME STEP 9 STRESS PERIOD 2
 1 TOTAL ITERATIONS

 INNER ITERATION SUMMARY
 --------------------------------------------------------------------------------------------------------------------------------
     TOTAL      OUTER     INNER                    MAXIMUM CHANGE        MAXIMUM                  MAXIMUM RESIDUAL        MAXIMUM
 ITERATION  ITERATION ITERATION                    MODEL-(CELLID)         CHANGE                    MODEL-(CELLID)       RESIDUAL
 --------------------------------------------------------------------------------------------------------------------------------
          1         1         1                     1_GWF-(1,3,4) -0.1739578E-10                     1_GWF-(1,4,6)  0.2570908E-08


 OUTER ITERATION SUMMARY
 ---------------------------------------------------------------------------------------
                       OUTER     INNER         MAXIMUM                    MAXIMUM CHANGE
                   ITERATION ITERATION          CHANGE                    MODEL-(CELLID)
 ---------------------------------------------------------------------------------------
 Linear Solver             1         1   -1.530792E-11                     1_GWF-(1,3,4)

 1 CALLS TO NUMERICAL SOLUTION IN TIME STEP 10 STRESS PERIOD 2
 1 TOTAL ITERATIONS

 INNER ITERATION SUMMARY
 --------------------------------------------------------------------------------------------------------------------------------
     TOTAL      OUTER     INNER                    MAXIMUM CHANGE        MAXIMUM                  MAXIMUM RESIDUAL        MAXIMUM
 ITERATION  ITERATION ITERATION                    MODEL-(CELLID)         CHANGE                    MODEL-(CELLID)       RESIDUAL
 --------------------------------------------------------------------------------------------------------------------------------
          1         1         1                     1_GWF-(1,3,4) -0.1530794E-10                     1_GWF-(1,4,6)  0.2451273E-08
1
                            STRESS PERIOD NO.    3, LENGTH =   100.0000    
                            -----------------------------------------------

                              NUMBER OF TIME STEPS =     5

                               MULTIPLIER FOR DELT =     1.000

                            INITIAL TIME STEP SIZE =   20.00000    


 OUTER ITERATION SUMMARY
 ---------------------------------------------------------------------------------------
                       OUTER     INNER         MAXIMUM                    MAXIMUM CHANGE
                   ITERATION ITERATION          CHANGE                    MODEL-(CELLID)
 ---------------------------------------------------------------------------------------
 Linear Solver             1        15    -2.76802                         1_GWF-(1,5,5)
 Under-relaxation          1              -2.76802                         1_GWF-(1,5,5)
 Linear Solver             2         1   -1.367443E-10                     1_GWF-(1,4,6)

 2 CALLS TO NUMERICAL SOLUTION IN TIME STEP 1 STRESS PERIOD 3
 16 TOTAL ITERATIONS

 INNER ITERATION SUMMARY
 --------------------------------------------------------------------------------------------------------------------------------
     TOTAL      OUTER     INNER                    MAXIMUM CHANGE        MAXIMUM                  MAXIMUM RESIDUAL        MAXIMUM
 ITERATION  ITERATION ITERATION                    MODEL-(CELLID)         CHANGE                    MODEL-(CELLID)       RESIDUAL
 --------------------------------------------------------------------------------------------------------------------------------
          1         1         1                     1_GWF-(1,5,5)  -2.063053                         1_GWF-(1,4,6)   1.221906    
          2         1         2                     1_GWF-(1,4,6) -0.8405423                         1_GWF-(1,6,4)  -1.063031    
          3         1         3                     1_GWF-(1,3,7) -0.3814530                         1_GWF-(1,7,3) -0.3728537    
          4         1         4                     1_GWF-(1,1,8) -0.1435676                         1_GWF-(1,3,7)  0.9368476E-01
          5         1         5                    1_GWF-(1,10,6) -0.2788843E-01                     1_GWF-(1,2,7) -0.2364424E-01
          6         1         6                    1_GWF-(1,10,7) -0.8344894E-02                     1_GWF-(1,3,7) -0.7285559E-02
          7         1         7                     1_GWF-(1,2,5)  0.3428671E-02                     1_GWF-(1,7,3)  0.3370645E-02
          8         1         8                    1_GWF-(1,10,3) -0.1211894E-02                     1_GWF-(1,8,2)  0.1155304E-02
          9         1         9                     1_GWF-(1,9,4) -0.2666931E-03                     1_GWF-(1,2,8) -0.1809010E-03
         10         1        10                     1_GWF-(1,6,8)  0.4067006E-04                     1_GWF-(1,2,8)  0.3405755E-04
         11         1        11                     1_GWF-(1,6,7)  0.7662557E-05                     1_GWF-(1,8,2)  0.9608657E-05
         12         1        12                     1_GWF-(1,5,7)  0.1975301E-05                     1_GWF-(1,3,7) -0.2400634E-05
         13         1        13                     1_GWF-(1,1,4) -0.5452866E-06                     1_GWF-(1,6,6)  0.3821621E-06
         14         1        14                     1_GWF-(1,2,3) -0.9767181E-07                     1_GWF-(1,4,7) -0.6138971E-07
         15         1        15                     1_GWF-(1,4,7)  0.6528793E-08                     1_GWF-(1,4,6)  0.6381679E-08
         16         2         1                     1_GWF-(1,4,6) -0.1367443E-09                     1_GWF-(1,4,6)  0.5147603E-08


 OUTER ITERATION SUMMARY
 ---------------------------------------------------------------------------------------
                       OUTER     INNER         MAXIMUM                    MAXIMUM CHANGE
                   ITERATION ITERATION          CHANGE                    MODEL-(CELLID)
 ---------------------------------------------------------------------------------------
 Linear Solver             1         1   -8.206774E-11                     1_GWF-(1,3,4)

 1 CALLS TO NUMERICAL SOLUTION IN TIME STEP 2 STRESS PERIOD 3
 1 TOTAL ITERATIONS

 INNER ITERATION SUMMARY
 --------------------------------------------------------------------------------------------------------------------------------
     TOTAL      OUTER     INNER                    MAXIMUM CHANGE        MAXIMUM                  MAXIMUM RESIDUAL        MAXIMUM
 ITERATION  ITERATION ITERATION                    MODEL-(CELLID)         CHANGE                    MODEL-(CELLID)       RESIDUAL
 --------------------------------------------------------------------------------------------------------------------------------
          1         1         1                     1_GWF-(1,3,4) -0.8206776E-10                     1_GWF-(1,4,6)  0.4423287E-08


 OUTER ITERATION SUMMARY
 ---------------------------------------------------------------------------------------
                       OUTER     INNER         MAXIMUM                    MAXIMUM CHANGE
                   ITERATION ITERATION          CHANGE                    MODEL-(CELLID)
 ---------------------------------------------------------------------------------------
 Linear Solver             1         1   -5.729395E-11                     1_GWF-(1,3,4)

 1 CALLS TO NUMERICAL SOLUTION IN TIME STEP 3 STRESS PERIOD 3
 1 TOTAL ITERATIONS

 INNER ITERATION SUMMARY
 --------------------------------------------------------------------------------------------------------------------------------
     TOTAL      OUTER     INNER                    MAXIMUM CHANGE        MAXIMUM                  MAXIMUM RESIDUAL        MAXIMUM
 ITERATION  ITERATION ITERATION                    MODEL-(CELLID)         CHANGE                    MODEL-(CELLID)       RESIDUAL
 --------------------------------------------------------------------------------------------------------------------------------
          1         1         1                     1_GWF-(1,3,4) -0.5729397E-10                     1_GWF-(1,4,6)  0.3930508E-08


 OUTER ITERATION SUMMARY
 ---------------------------------------------------------------------------------------
                       OUTER     INNER         MAXIMUM                    MAXIMUM CHANGE
                   ITERATION ITERATION          CHANGE                    MODEL-(CELLID)
 ---------------------------------------------------------------------------------------
 Linear Solver             1         1   -4.314465E-11                     1_GWF-(1,3,4)

 1 CALLS TO NUMERICAL SOLUTION IN TIME STEP 4 STRESS PERIOD 3
 1 TOTAL ITERATIONS

 INNER ITERATION SUMMARY
 --------------------------------------------------------------------------------------------------------------------------------
     TOTAL      OUTER     INNER                    MAXIMUM CHANGE        MAXIMUM                  MAXIMUM RESIDUAL        MAXIMUM
 ITERATION  ITERATION ITERATION                    MODEL-(CELLID)         CHANGE                    MODEL-(CELLID)       RESIDUAL
 --------------------------------------------------------------------------------------------------------------------------------
          1         1         1                     1_GWF-(1,3,4) -0.4314463E-10                     1_GWF-(1,4,6)  0.3566909E-08


 OUTER ITERATION SUMMARY
 ---------------------------------------------------------------------------------------
                       OUTER     INNER         MAXIMUM                    MAXIMUM CHANGE
                   ITERATION ITERATION          CHANGE                    MODEL-(CELLID)
 ---------------------------------------------------------------------------------------
 Linear Solver             1         1   -3.410838E-11                     1_GWF-(1,3,4)

 1 CALLS TO NUMERICAL SOLUTION IN TIME STEP 5 STRESS PERIOD 3
 1 TOTAL ITERATIONS

 INNER ITERATION SUMMARY
 --------------------------------------------------------------------------------------------------------------------------------
     TOTAL      OUTER     INNER                    MAXIMUM CHANGE        MAXIMUM                  MAXIMUM RESIDUAL        MAXIMUM
 ITERATION  ITERATION ITERATION                    MODEL-(CELLID)         CHANGE                    MODEL-(CELLID)       RESIDUAL
 --------------------------------------------------------------------------------------------------------------------------------
          1         1         1                     1_GWF-(1,3,4) -0.3410839E-10                     1_GWF-(1,4,6)  0.3284286E-08
1
                            STRESS PERIOD NO.    4, LENGTH =   100.0000    
                            -----------------------------------------------

                              NUMBER OF TIME STEPS =    10

                               MULTIPLIER FOR DELT =     1.000

                            INITIAL TIME STEP SIZE =   10.00000    


 OUTER ITERATION SUMMARY
 ---------------------------------------------------------------------------------------
                       OUTER     INNER         MAXIMUM                    MAXIMUM CHANGE
                   ITERATION ITERATION          CHANGE                    MODEL-(CELLID)
 ---------------------------------------------------------------------------------------
 Linear Solver             1         1   -2.789918E-11                     1_GWF-(1,3,4)

 1 CALLS TO NUMERICAL SOLUTION IN TIME STEP 1 STRESS PERIOD 4
 1 TOTAL ITERATIONS

 INNER ITERATION SUMMARY
 --------------------------------------------------------------------------------------------------------------------------------
     TOTAL      OUTER     INNER                    MAXIMUM CHANGE        MAXIMUM                  MAXIMUM RESIDUAL        MAXIMUM
 ITERATION  ITERATION ITERATION                    MODEL-(CELLID)         CHANGE                    MODEL-(CELLID)       RESIDUAL
 --------------------------------------------------------------------------------------------------------------------------------
          1         1         1                     1_GWF-(1,3,4) -0.2789918E-10                     1_GWF-(1,4,6)  0.3056449E-08


 OUTER ITERATION SUMMARY
 ---------------------------------------------------------------------------------------
                       OUTER     INNER         MAXIMUM                    MAXIMUM CHANGE
                   ITERATION ITERATION          CHANGE                    MODEL-(CELLID)
 ---------------------------------------------------------------------------------------
 Linear Solver             1         1   -2.340450E-11                     1_GWF-(1,3,4)

 1 CALLS TO NUMERICAL SOLUTION IN TIME STEP 2 STRESS PERIOD 4
 1 TOTAL ITERATIONS

 INNER ITERATION SUMMARY
 --------------------------------------------------------------------------------------------------------------------------------
     TOTAL      OUTER     INNER                    MAXIMUM CHANGE        MAXIMUM                  MAXIMUM RESIDUAL        MAXIMUM
 ITERATION  ITERATION ITERATION                    MODEL-(CELLID)         CHANGE                    MODEL-(CELLID)       RESIDUAL
 --------------------------------------------------------------------------------------------------------------------------------
          1         1         1                     1_GWF-(1,3,4) -0.2340448E-10                     1_GWF-(1,4,6)  0.2867744E-08


 OUTER ITERATION SUMMARY
 ---------------------------------------------------------------------------------------
                       OUTER     INNER         MAXIMUM                    MAXIMUM CHANGE
                   ITERATION ITERATION          CHANGE                    MODEL-(CELLID)
 ---------------------------------------------------------------------------------------
 Linear Solver             1         1   -2.002121E-11                     1_GWF-(1,3,4)

 1 CALLS TO NUMERICAL SOLUTION IN TIME STEP 3 STRESS PERIOD 4
 1 TOTAL ITERATIONS

 INNER ITERATION SUMMARY
 --------------------------------------------------------------------------------------------------------------------------------
     TOTAL      OUTER     INNER                    MAXIMUM CHANGE        MAXIMUM                  MAXIMUM RESIDUAL        MAXIMUM
 ITERATION  ITERATION ITERATION                    MODEL-(CELLID)         CHANGE                    MODEL-(CELLID)       RESIDUAL
 --------------------------------------------------------------------------------------------------------------------------------
          1         1         1                     1_GWF-(1,3,4) -0.2002123E-10                     1_GWF-(1,4,6)  0.2708149E-08


 OUTER ITERATION SUMMARY
 ---------------------------------------------------------------------------------------
                       OUTER     INNER         MAXIMUM                    MAXIMUM CHANGE
                   ITERATION ITERATION          CHANGE                    MODEL-(CELLID)
 ---------------------------------------------------------------------------------------
 Linear Solver             1         1   -1.739581E-11                     1_GWF-(1,3,4)

 1 CALLS TO NUMERICAL SOLUTION IN TIME STEP 4 STRESS PERIOD 4
 1 TOTAL ITERATIONS

 INNER ITERATION SUMMARY
 --------------------------------------------------------------------------------------------------------------------------------
     TOTAL      OUTER     INNER                    MAXIMUM CHANGE        MAXIMUM                  MAXIMUM RESIDUAL        MAXIMUM
 ITERATION  ITERATION ITERATION                    MODEL-(CELLID)         CHANGE                    MODEL-(CELLID)       RESIDUAL
 --------------------------------------------------------------------------------------------------------------------------------
          1         1         1                     1_GWF-(1,3,4) -0.1739578E-10                     1_GWF-(1,4,6)  0.2570906E-08


 OUTER ITERATION SUMMARY
 ---------------------------------------------------------------------------------------
                       OUTER     INNER         MAXIMUM                    MAXIMUM CHANGE
                   ITERATION ITERATION          CHANGE                    MODEL-(CELLID)
 ---------------------------------------------------------------------------------------
 Linear Solver             1         1   -1.530792E-11                     1_GWF-(1,3,4)

 1 CALLS TO NUMERICAL SOLUTION IN TIME STEP 5 STRESS PERIOD 4
 1 TOTAL ITERATIONS

 INNER ITERATION SUMMARY
 --------------------------------------------------------------------------------------------------------------------------------
     TOTAL      OUTER     INNER                    MAXIMUM CHANGE        MAXIMUM                  MAXIMUM RESIDUAL        MAXIMUM
 ITERATION  ITERATION ITERATION                    MODEL-(CELLID)         CHANGE                    MODEL-(CELLID)       RESIDUAL
 --------------------------------------------------------------------------------------------------------------------------------
          1         1         1                     1_GWF-(1,3,4) -0.1530794E-10                     1_GWF-(1,4,6)  0.2451272E-08


 OUTER ITERATION SUMMARY
 ---------------------------------------------------------------------------------------
                       OUTER     INNER         MAXIMUM                    MAXIMUM CHANGE
                   ITERATION ITERATION          CHANGE                    MODEL-(CELLID)
 ---------------------------------------------------------------------------------------
 Linear Solver             1         1   -1.361394E-11                     1_GWF-(1,3,4)

 1 CALLS TO NUMERICAL SOLUTION IN TIME STEP 6 STRESS PERIOD 4
 1 TOTAL ITERATIONS

 INNER ITERATION SUMMARY
 --------------------------------------------------------------------------------------------------------------------------------
     TOTAL      OUTER     INNER                    MAXIMUM CHANGE        MAXIMUM                  MAXIMUM RESIDUAL        MAXIMUM
 ITERATION  ITERATION ITERATION                    MODEL-(CELLID)         CHANGE                    MODEL-(CELLID)       RESIDUAL
 --------------------------------------------------------------------------------------------------------------------------------
          1         1         1                     1_GWF-(1,3,4) -0.1361392E-10                     1_GWF-(1,4,6)  0.2345798E-08


 OUTER ITERATION SUMMARY
 ---------------------------------------------------------------------------------------
                       OUTER     INNER         MAXIMUM                    MAXIMUM CHANGE
                   ITERATION ITERATION          CHANGE                    MODEL-(CELLID)
 ---------------------------------------------------------------------------------------
 Linear Solver             1         1   -1.221612E-11                     1_GWF-(1,3,4)

 1 CALLS TO NUMERICAL SOLUTION IN TIME STEP 7 STRESS PERIOD 4
 1 TOTAL ITERATIONS

 INNER ITERATION SUMMARY
 --------------------------------------------------------------------------------------------------------------------------------
     TOTAL      OUTER     INNER                    MAXIMUM CHANGE        MAXIMUM                  MAXIMUM RESIDUAL        MAXIMUM
 ITERATION  ITERATION ITERATION                    MODEL-(CELLID)         CHANGE                    MODEL-(CELLID)       RESIDUAL
 --------------------------------------------------------------------------------------------------------------------------------
          1         1         1                     1_GWF-(1,3,4) -0.1221613E-10                     1_GWF-(1,4,6)  0.2251914E-08


 OUTER ITERATION SUMMARY
 ---------------------------------------------------------------------------------------
                       OUTER     INNER         MAXIMUM                    MAXIMUM CHANGE
                   ITERATION ITERATION          CHANGE                    MODEL-(CELLID)
 ---------------------------------------------------------------------------------------
 Linear Solver             1         1   -1.104622E-11                     1_GWF-(1,3,4)

 1 CALLS TO NUMERICAL SOLUTION IN TIME STEP 8 STRESS PERIOD 4
 1 TOTAL ITERATIONS

 INNER ITERATION SUMMARY
 --------------------------------------------------------------------------------------------------------------------------------
     TOTAL      OUTER     INNER                    MAXIMUM CHANGE        MAXIMUM                  MAXIMUM RESIDUAL        MAXIMUM
 ITERATION  ITERATION ITERATION                    MODEL-(CELLID)         CHANGE                    MODEL-(CELLID)       RESIDUAL
 --------------------------------------------------------------------------------------------------------------------------------
          1         1         1                     1_GWF-(1,3,4) -0.1104621E-10                     1_GWF-(1,4,6)  0.2167660E-08


 OUTER ITERATION SUMMARY
 ---------------------------------------------------------------------------------------
                       OUTER     INNER         MAXIMUM                    MAXIMUM CHANGE
                   ITERATION ITERATION          CHANGE                    MODEL-(CELLID)
 ---------------------------------------------------------------------------------------
 Linear Solver             1         1   -1.005490E-11                     1_GWF-(1,3,4)

 1 CALLS TO NUMERICAL SOLUTION IN TIME STEP 9 STRESS PERIOD 4
 1 TOTAL ITERATIONS

 INNER ITERATION SUMMARY
 --------------------------------------------------------------------------------------------------------------------------------
     TOTAL      OUTER     INNER                    MAXIMUM CHANGE        MAXIMUM                  MAXIMUM RESIDUAL        MAXIMUM
 ITERATION  ITERATION ITERATION                    MODEL-(CELLID)         CHANGE                    MODEL-(CELLID)       RESIDUAL
 --------------------------------------------------------------------------------------------------------------------------------
          1         1         1                     1_GWF-(1,3,4) -0.1005489E-10                     1_GWF-(1,4,6)  0.2091507E-08


 OUTER ITERATION SUMMARY
 ---------------------------------------------------------------------------------------
                       OUTER     INNER         MAXIMUM                    MAXIMUM CHANGE
                   ITERATION ITERATION          CHANGE                    MODEL-(CELLID)
 ---------------------------------------------------------------------------------------
 Linear Solver             1         1   -9.205914E-12                     1_GWF-(1,3,4)

 1 CALLS TO NUMERICAL SOLUTION IN TIME STEP 10 STRESS PERIOD 4
 1 TOTAL ITERATIONS

 INNER ITERATION SUMMARY
 --------------------------------------------------------------------------------------------------------------------------------
     TOTAL      OUTER     INNER                    MAXIMUM CHANGE        MAXIMUM                  MAXIMUM RESIDUAL        MAXIMUM
 ITERATION  ITERATION ITERATION                    MODEL-(CELLID)         CHANGE                    MODEL-(CELLID)       RESIDUAL
 --------------------------------------------------------------------------------------------------------------------------------
          1         1         1                     1_GWF-(1,3,4) -0.9205899E-11                     1_GWF-(1,4,6)  0.2022248E-08
1
                            STRESS PERIOD NO.    5, LENGTH =   100.0000    
                            -----------------------------------------------

                              NUMBER OF TIME STEPS =     5

                               MULTIPLIER FOR DELT =     1.000

                            INITIAL TIME STEP SIZE =   20.00000    


 OUTER ITERATION SUMMARY
 ---------------------------------------------------------------------------------------
                       OUTER     INNER         MAXIMUM                    MAXIMUM CHANGE
                   ITERATION ITERATION          CHANGE                    MODEL-(CELLID)
 ---------------------------------------------------------------------------------------
 Linear Solver             1        16     5.53605                         1_GWF-(1,5,5)
 Under-relaxation          1               5.53605                         1_GWF-(1,5,5)
 Linear Solver             2         1    1.810272E-10                     1_GWF-(1,3,4)

 2 CALLS TO NUMERICAL SOLUTION IN TIME STEP 1 STRESS PERIOD 5
 17 TOTAL ITERATIONS

 INNER ITERATION SUMMARY
 --------------------------------------------------------------------------------------------------------------------------------
     TOTAL      OUTER     INNER                    MAXIMUM CHANGE        MAXIMUM                  MAXIMUM RESIDUAL        MAXIMUM
 ITERATION  ITERATION ITERATION                    MODEL-(CELLID)         CHANGE                    MODEL-(CELLID)       RESIDUAL
 --------------------------------------------------------------------------------------------------------------------------------
          1         1         1                     1_GWF-(1,5,5)   4.126105                         1_GWF-(1,4,6)  -2.443812    
          2         1         2                     1_GWF-(1,4,6)   1.681085                         1_GWF-(1,6,4)   2.126062    
          3         1         3                     1_GWF-(1,3,7)  0.7629061                         1_GWF-(1,7,3)  0.7457073    
          4         1         4                     1_GWF-(1,1,8)  0.2871351                         1_GWF-(1,3,7) -0.1873695    
          5         1         5                    1_GWF-(1,10,6)  0.5577685E-01                     1_GWF-(1,2,7)  0.4728849E-01
          6         1         6                    1_GWF-(1,10,7)  0.1668979E-01                     1_GWF-(1,3,7)  0.1457112E-01
          7         1         7                     1_GWF-(1,2,5) -0.6857343E-02                     1_GWF-(1,7,3) -0.6741290E-02
          8         1         8                    1_GWF-(1,10,3)  0.2423787E-02                     1_GWF-(1,8,2) -0.2310609E-02
          9         1         9                     1_GWF-(1,9,4)  0.5333862E-03                     1_GWF-(1,2,8)  0.3618020E-03
         10         1        10                     1_GWF-(1,6,8) -0.8134012E-04                     1_GWF-(1,2,8) -0.6811511E-04
         11         1        11                     1_GWF-(1,6,7) -0.1532512E-04                     1_GWF-(1,8,2) -0.1921732E-04
         12         1        12                     1_GWF-(1,5,7) -0.3950610E-05                     1_GWF-(1,3,7)  0.4801314E-05
         13         1        13                     1_GWF-(1,1,4)  0.1090628E-05                     1_GWF-(1,6,6) -0.7644289E-06
         14         1        14                     1_GWF-(1,2,3)  0.1954786E-06                     1_GWF-(1,4,7)  0.1231355E-06
         15         1        15                     1_GWF-(1,4,7) -0.1374578E-07                     1_GWF-(1,4,6) -0.1196120E-07
         16         1        16                     1_GWF-(1,3,4)  0.6441750E-09                     1_GWF-(1,4,6) -0.6565828E-08
         17         2         1                     1_GWF-(1,3,4)  0.1810272E-09                     1_GWF-(1,4,6) -0.5179283E-08


 OUTER ITERATION SUMMARY
 ---------------------------------------------------------------------------------------
                       OUTER     INNER         MAXIMUM                    MAXIMUM CHANGE
                   ITERATION ITERATION          CHANGE                    MODEL-(CELLID)
 ---------------------------------------------------------------------------------------
 Linear Solver             1         1    1.018421E-10                     1_GWF-(1,3,4)

 1 CALLS TO NUMERICAL SOLUTION IN TIME STEP 2 STRESS PERIOD 5
 1 TOTAL ITERATIONS

 INNER ITERATION SUMMARY
 --------------------------------------------------------------------------------------------------------------------------------
     TOTAL      OUTER     INNER                    MAXIMUM CHANGE        MAXIMUM                  MAXIMUM RESIDUAL        MAXIMUM
 ITERATION  ITERATION ITERATION                    MODEL-(CELLID)         CHANGE                    MODEL-(CELLID)       RESIDUAL
 --------------------------------------------------------------------------------------------------------------------------------
          1         1         1                     1_GWF-(1,3,4)  0.1018421E-09                     1_GWF-(1,4,6) -0.4417744E-08


 OUTER ITERATION SUMMARY
 ---------------------------------------------------------------------------------------
                       OUTER     INNER         MAXIMUM                    MAXIMUM CHANGE
                   ITERATION ITERATION          CHANGE                    MODEL-(CELLID)
 ---------------------------------------------------------------------------------------
 Linear Solver             1         1    6.850565E-11                     1_GWF-(1,3,4)

 1 CALLS TO NUMERICAL SOLUTION IN TIME STEP 3 STRESS PERIOD 5
 1 TOTAL ITERATIONS

 INNER ITERATION SUMMARY
 --------------------------------------------------------------------------------------------------------------------------------
     TOTAL      OUTER     INNER                    MAXIMUM CHANGE        MAXIMUM                  MAXIMUM RESIDUAL        MAXIMUM
 ITERATION  ITERATION ITERATION                    MODEL-(CELLID)         CHANGE                    MODEL-(CELLID)       RESIDUAL
 --------------------------------------------------------------------------------------------------------------------------------
          1         1         1                     1_GWF-(1,3,4)  0.6850571E-10                     1_GWF-(1,4,6) -0.3914104E-08


 OUTER ITERATION SUMMARY
 ---------------------------------------------------------------------------------------
                       OUTER     INNER         MAXIMUM                    MAXIMUM CHANGE
                   ITERATION ITERATION          CHANGE                    MODEL-(CELLID)
 ---------------------------------------------------------------------------------------
 Linear Solver             1         1    5.045053E-11                     1_GWF-(1,3,4)

 1 CALLS TO NUMERICAL SOLUTION IN TIME STEP 4 STRESS PERIOD 5
 1 TOTAL ITERATIONS

 INNER ITERATION SUMMARY
 --------------------------------------------------------------------------------------------------------------------------------
     TOTAL      OUTER     INNER                    MAXIMUM CHANGE        MAXIMUM                  MAXIMUM RESIDUAL        MAXIMUM
 ITERATION  ITERATION ITERATION                    MODEL-(CELLID)         CHANGE                    MODEL-(CELLID)       RESIDUAL
 --------------------------------------------------------------------------------------------------------------------------------
          1         1         1                     1_GWF-(1,3,4)  0.5045057E-10                     1_GWF-(1,4,6) -0.3548136E-08


 OUTER ITERATION SUMMARY
 ---------------------------------------------------------------------------------------
                       OUTER     INNER         MAXIMUM                    MAXIMUM CHANGE
                   ITERATION ITERATION          CHANGE                    MODEL-(CELLID)
 ---------------------------------------------------------------------------------------
 Linear Solver             1         1    3.928835E-11                     1_GWF-(1,3,4)

 1 CALLS TO NUMERICAL SOLUTION IN TIME STEP 5 STRESS PERIOD 5
 1 TOTAL ITERATIONS

 INNER ITERATION SUMMARY
 --------------------------------------------------------------------------------------------------------------------------------
     TOTAL      OUTER     INNER                    MAXIMUM CHANGE        MAXIMUM                  MAXIMUM RESIDUAL        MAXIMUM
 ITERATION  ITERATION ITERATION                    MODEL-(CELLID)         CHANGE                    MODEL-(CELLID)       RESIDUAL
 --------------------------------------------------------------------------------------------------------------------------------
          1         1         1                     1_GWF-(1,3,4)  0.3928845E-10                     1_GWF-(1,4,6) -0.3266302E-08


 Solution SLN_1 summary
 ----------------------------------------------------------------------
 Total formulate time:  .000000000000000 seconds
 Total solution time:   .000000000000000 seconds


 INFORMATION ON VARIABLES STORED IN THE MEMORY MANAGER
      COMPONENT        NINTS     NREAL        MBYTES    
--------------------------------------------------------
TDIS                         9        18        1.80E-04
TESTJE                    2736      2600        3.17E-02
SLN_1                  3004469   2002862         28.    
 
 Number of allocated integer variables:   3007265
 Number of allocated real variables:    2005429
 Allocated memory in megabytes:     28.0725    
 

 Run end date and time (yyyy/mm/dd hh:mm:ss): 2019/12/11 13:45:48
 Elapsed run time:  0.079 Seconds

 Normal termination of simulation.
